version 2
run General-0-20170313-10:46:15-3328
attr configname General
attr datetime 20170313-10:46:15
attr experiment General
attr inifile omnetpp.ini
attr iterationvars ""
attr iterationvars2 $repetition=0
attr measurement ""
attr network Cloud_A
attr processid 3328
attr repetition 0
attr replication #0
attr resultdir results
attr runnumber 0
attr seedset 0

