version 2
run General-0-20170326-12:36:39-8226
attr configname General
attr datetime 20170326-12:36:39
attr experiment General
attr inifile omnetpp.ini
attr iterationvars ""
attr iterationvars2 $repetition=0
attr measurement ""
attr network Container_A
attr processid 8226
attr repetition 0
attr replication #0
attr resultdir results
attr runnumber 0
attr seedset 0

scalar Container_A.switch_0.relayUnit 	"number of received BPDUs from STP module" 	0
scalar Container_A.switch_0.relayUnit 	"number of received frames from network (including BPDUs)" 	0
scalar Container_A.switch_0.relayUnit 	"number of dropped frames (including BPDUs)" 	0
scalar Container_A.switch_0.relayUnit 	"number of delivered BPDUs to the STP module" 	0
scalar Container_A.switch_0.relayUnit 	"number of dispatched BPDU frames to the network" 	0
scalar Container_A.switch_0.relayUnit 	"number of dispatched non-BDPU frames to the network" 	0
scalar Container_A.switch_0.eth[0].mac 	"simulated time" 	3.000016
scalar Container_A.switch_0.eth[0].mac 	full-duplex 	1
scalar Container_A.switch_0.eth[0].mac 	"frames/sec sent" 	0
scalar Container_A.switch_0.eth[0].mac 	"frames/sec rcvd" 	0
scalar Container_A.switch_0.eth[0].mac 	"bits/sec sent" 	0
scalar Container_A.switch_0.eth[0].mac 	"bits/sec rcvd" 	0
scalar Container_A.switch_0.eth[0].mac 	"rx channel idle (%)" 	100
scalar Container_A.switch_0.eth[0].mac 	"rx channel utilization (%)" 	0
scalar Container_A.switch_0.eth[0].mac 	"rx channel collision (%)" 	0
scalar Container_A.switch_0.eth[0].mac 	collisions 	0
scalar Container_A.switch_0.eth[0].mac 	backoffs 	0
scalar Container_A.switch_0.eth[0].mac 	backoff:count 	0
attr interpolationmode  none
attr title  "backoff, count"
scalar Container_A.switch_0.eth[0].mac 	collision:count 	0
attr interpolationmode  none
attr title  "collision, count"
scalar Container_A.switch_0.eth[0].mac 	droppedPkNotForUs:count 	0
attr interpolationmode  none
attr source  dropPkNotForUs
attr title  "packets dropped/not for us, count"
scalar Container_A.switch_0.eth[0].mac 	droppedPkNotForUs:sum(packetBytes) 	0
attr interpolationmode  none
attr source  dropPkNotForUs
attr title  "packets dropped/not for us, sum(packetBytes)"
scalar Container_A.switch_0.eth[0].mac 	droppedPkIfaceDown:count 	0
attr interpolationmode  none
attr source  dropPkIfaceDown
attr title  "packets dropped/interface down, count"
scalar Container_A.switch_0.eth[0].mac 	droppedPkIfaceDown:sum(packetBytes) 	0
attr interpolationmode  none
attr source  dropPkIfaceDown
attr title  "packets dropped/interface down, sum(packetBytes)"
scalar Container_A.switch_0.eth[0].mac 	droppedPkBitError:count 	0
attr interpolationmode  none
attr source  dropPkBitError
attr title  "packets dropped/bit error, count"
scalar Container_A.switch_0.eth[0].mac 	droppedPkBitError:sum(packetBytes) 	0
attr interpolationmode  none
attr source  dropPkBitError
attr title  "packets dropped/bit error, sum(packetBytes)"
scalar Container_A.switch_0.eth[0].mac 	rxPkFromHL:count 	0
attr interpolationmode  none
attr source  rxPkFromHL
attr title  "packet bytes from higher layer, count"
scalar Container_A.switch_0.eth[0].mac 	rxPkFromHL:sum(packetBytes) 	0
attr interpolationmode  none
attr source  rxPkFromHL
attr title  "packet bytes from higher layer, sum(packetBytes)"
scalar Container_A.switch_0.eth[0].mac 	rxPausePkUnits:count 	0
attr interpolationmode  none
attr title  "pause units received, count"
scalar Container_A.switch_0.eth[0].mac 	rxPausePkUnits:sum 	0
attr interpolationmode  none
attr title  "pause units received, sum"
scalar Container_A.switch_0.eth[0].mac 	txPausePkUnits:count 	0
attr interpolationmode  none
attr title  "pause units sent, count"
scalar Container_A.switch_0.eth[0].mac 	txPausePkUnits:sum 	0
attr interpolationmode  none
attr title  "pause units sent, sum"
scalar Container_A.switch_0.eth[0].mac 	rxPkOk:count 	0
attr interpolationmode  none
attr source  rxPkOk
attr title  "packets received OK, count"
scalar Container_A.switch_0.eth[0].mac 	rxPkOk:sum(packetBytes) 	0
attr interpolationmode  none
attr source  rxPkOk
attr title  "packets received OK, sum(packetBytes)"
scalar Container_A.switch_0.eth[0].mac 	txPk:count 	0
attr interpolationmode  none
attr source  txPk
attr title  "packets transmitted, count"
scalar Container_A.switch_0.eth[0].mac 	txPk:sum(packetBytes) 	0
attr interpolationmode  none
attr source  txPk
attr title  "packets transmitted, sum(packetBytes)"
scalar Container_A.switch_0.eth[0].mac 	passedUpPk:count 	0
attr interpolationmode  none
attr source  packetSentToUpper
attr title  "packets passed to higher layer, count"
scalar Container_A.switch_0.eth[0].mac 	passedUpPk:sum(packetBytes) 	0
attr interpolationmode  none
attr source  packetSentToUpper
attr title  "packets passed to higher layer, sum(packetBytes)"
scalar Container_A.switch_0.eth[1].mac 	"simulated time" 	3.000016
scalar Container_A.switch_0.eth[1].mac 	full-duplex 	1
scalar Container_A.switch_0.eth[1].mac 	"frames/sec sent" 	0
scalar Container_A.switch_0.eth[1].mac 	"frames/sec rcvd" 	0
scalar Container_A.switch_0.eth[1].mac 	"bits/sec sent" 	0
scalar Container_A.switch_0.eth[1].mac 	"bits/sec rcvd" 	0
scalar Container_A.switch_0.eth[1].mac 	"rx channel idle (%)" 	100
scalar Container_A.switch_0.eth[1].mac 	"rx channel utilization (%)" 	0
scalar Container_A.switch_0.eth[1].mac 	"rx channel collision (%)" 	0
scalar Container_A.switch_0.eth[1].mac 	collisions 	0
scalar Container_A.switch_0.eth[1].mac 	backoffs 	0
scalar Container_A.switch_0.eth[1].mac 	backoff:count 	0
attr interpolationmode  none
attr title  "backoff, count"
scalar Container_A.switch_0.eth[1].mac 	collision:count 	0
attr interpolationmode  none
attr title  "collision, count"
scalar Container_A.switch_0.eth[1].mac 	droppedPkNotForUs:count 	0
attr interpolationmode  none
attr source  dropPkNotForUs
attr title  "packets dropped/not for us, count"
scalar Container_A.switch_0.eth[1].mac 	droppedPkNotForUs:sum(packetBytes) 	0
attr interpolationmode  none
attr source  dropPkNotForUs
attr title  "packets dropped/not for us, sum(packetBytes)"
scalar Container_A.switch_0.eth[1].mac 	droppedPkIfaceDown:count 	0
attr interpolationmode  none
attr source  dropPkIfaceDown
attr title  "packets dropped/interface down, count"
scalar Container_A.switch_0.eth[1].mac 	droppedPkIfaceDown:sum(packetBytes) 	0
attr interpolationmode  none
attr source  dropPkIfaceDown
attr title  "packets dropped/interface down, sum(packetBytes)"
scalar Container_A.switch_0.eth[1].mac 	droppedPkBitError:count 	0
attr interpolationmode  none
attr source  dropPkBitError
attr title  "packets dropped/bit error, count"
scalar Container_A.switch_0.eth[1].mac 	droppedPkBitError:sum(packetBytes) 	0
attr interpolationmode  none
attr source  dropPkBitError
attr title  "packets dropped/bit error, sum(packetBytes)"
scalar Container_A.switch_0.eth[1].mac 	rxPkFromHL:count 	0
attr interpolationmode  none
attr source  rxPkFromHL
attr title  "packet bytes from higher layer, count"
scalar Container_A.switch_0.eth[1].mac 	rxPkFromHL:sum(packetBytes) 	0
attr interpolationmode  none
attr source  rxPkFromHL
attr title  "packet bytes from higher layer, sum(packetBytes)"
scalar Container_A.switch_0.eth[1].mac 	rxPausePkUnits:count 	0
attr interpolationmode  none
attr title  "pause units received, count"
scalar Container_A.switch_0.eth[1].mac 	rxPausePkUnits:sum 	0
attr interpolationmode  none
attr title  "pause units received, sum"
scalar Container_A.switch_0.eth[1].mac 	txPausePkUnits:count 	0
attr interpolationmode  none
attr title  "pause units sent, count"
scalar Container_A.switch_0.eth[1].mac 	txPausePkUnits:sum 	0
attr interpolationmode  none
attr title  "pause units sent, sum"
scalar Container_A.switch_0.eth[1].mac 	rxPkOk:count 	0
attr interpolationmode  none
attr source  rxPkOk
attr title  "packets received OK, count"
scalar Container_A.switch_0.eth[1].mac 	rxPkOk:sum(packetBytes) 	0
attr interpolationmode  none
attr source  rxPkOk
attr title  "packets received OK, sum(packetBytes)"
scalar Container_A.switch_0.eth[1].mac 	txPk:count 	0
attr interpolationmode  none
attr source  txPk
attr title  "packets transmitted, count"
scalar Container_A.switch_0.eth[1].mac 	txPk:sum(packetBytes) 	0
attr interpolationmode  none
attr source  txPk
attr title  "packets transmitted, sum(packetBytes)"
scalar Container_A.switch_0.eth[1].mac 	passedUpPk:count 	0
attr interpolationmode  none
attr source  packetSentToUpper
attr title  "packets passed to higher layer, count"
scalar Container_A.switch_0.eth[1].mac 	passedUpPk:sum(packetBytes) 	0
attr interpolationmode  none
attr source  packetSentToUpper
attr title  "packets passed to higher layer, sum(packetBytes)"
scalar Container_A.switch_0.eth[2].mac 	"simulated time" 	3.000016
scalar Container_A.switch_0.eth[2].mac 	full-duplex 	1
scalar Container_A.switch_0.eth[2].mac 	"frames/sec sent" 	0
scalar Container_A.switch_0.eth[2].mac 	"frames/sec rcvd" 	0
scalar Container_A.switch_0.eth[2].mac 	"bits/sec sent" 	0
scalar Container_A.switch_0.eth[2].mac 	"bits/sec rcvd" 	0
scalar Container_A.switch_0.eth[2].mac 	"rx channel idle (%)" 	100
scalar Container_A.switch_0.eth[2].mac 	"rx channel utilization (%)" 	0
scalar Container_A.switch_0.eth[2].mac 	"rx channel collision (%)" 	0
scalar Container_A.switch_0.eth[2].mac 	collisions 	0
scalar Container_A.switch_0.eth[2].mac 	backoffs 	0
scalar Container_A.switch_0.eth[2].mac 	backoff:count 	0
attr interpolationmode  none
attr title  "backoff, count"
scalar Container_A.switch_0.eth[2].mac 	collision:count 	0
attr interpolationmode  none
attr title  "collision, count"
scalar Container_A.switch_0.eth[2].mac 	droppedPkNotForUs:count 	0
attr interpolationmode  none
attr source  dropPkNotForUs
attr title  "packets dropped/not for us, count"
scalar Container_A.switch_0.eth[2].mac 	droppedPkNotForUs:sum(packetBytes) 	0
attr interpolationmode  none
attr source  dropPkNotForUs
attr title  "packets dropped/not for us, sum(packetBytes)"
scalar Container_A.switch_0.eth[2].mac 	droppedPkIfaceDown:count 	0
attr interpolationmode  none
attr source  dropPkIfaceDown
attr title  "packets dropped/interface down, count"
scalar Container_A.switch_0.eth[2].mac 	droppedPkIfaceDown:sum(packetBytes) 	0
attr interpolationmode  none
attr source  dropPkIfaceDown
attr title  "packets dropped/interface down, sum(packetBytes)"
scalar Container_A.switch_0.eth[2].mac 	droppedPkBitError:count 	0
attr interpolationmode  none
attr source  dropPkBitError
attr title  "packets dropped/bit error, count"
scalar Container_A.switch_0.eth[2].mac 	droppedPkBitError:sum(packetBytes) 	0
attr interpolationmode  none
attr source  dropPkBitError
attr title  "packets dropped/bit error, sum(packetBytes)"
scalar Container_A.switch_0.eth[2].mac 	rxPkFromHL:count 	0
attr interpolationmode  none
attr source  rxPkFromHL
attr title  "packet bytes from higher layer, count"
scalar Container_A.switch_0.eth[2].mac 	rxPkFromHL:sum(packetBytes) 	0
attr interpolationmode  none
attr source  rxPkFromHL
attr title  "packet bytes from higher layer, sum(packetBytes)"
scalar Container_A.switch_0.eth[2].mac 	rxPausePkUnits:count 	0
attr interpolationmode  none
attr title  "pause units received, count"
scalar Container_A.switch_0.eth[2].mac 	rxPausePkUnits:sum 	0
attr interpolationmode  none
attr title  "pause units received, sum"
scalar Container_A.switch_0.eth[2].mac 	txPausePkUnits:count 	0
attr interpolationmode  none
attr title  "pause units sent, count"
scalar Container_A.switch_0.eth[2].mac 	txPausePkUnits:sum 	0
attr interpolationmode  none
attr title  "pause units sent, sum"
scalar Container_A.switch_0.eth[2].mac 	rxPkOk:count 	0
attr interpolationmode  none
attr source  rxPkOk
attr title  "packets received OK, count"
scalar Container_A.switch_0.eth[2].mac 	rxPkOk:sum(packetBytes) 	0
attr interpolationmode  none
attr source  rxPkOk
attr title  "packets received OK, sum(packetBytes)"
scalar Container_A.switch_0.eth[2].mac 	txPk:count 	0
attr interpolationmode  none
attr source  txPk
attr title  "packets transmitted, count"
scalar Container_A.switch_0.eth[2].mac 	txPk:sum(packetBytes) 	0
attr interpolationmode  none
attr source  txPk
attr title  "packets transmitted, sum(packetBytes)"
scalar Container_A.switch_0.eth[2].mac 	passedUpPk:count 	0
attr interpolationmode  none
attr source  packetSentToUpper
attr title  "packets passed to higher layer, count"
scalar Container_A.switch_0.eth[2].mac 	passedUpPk:sum(packetBytes) 	0
attr interpolationmode  none
attr source  packetSentToUpper
attr title  "packets passed to higher layer, sum(packetBytes)"
scalar Container_A.rackSwitch_0.relayUnit 	"number of received BPDUs from STP module" 	0
scalar Container_A.rackSwitch_0.relayUnit 	"number of received frames from network (including BPDUs)" 	0
scalar Container_A.rackSwitch_0.relayUnit 	"number of dropped frames (including BPDUs)" 	0
scalar Container_A.rackSwitch_0.relayUnit 	"number of delivered BPDUs to the STP module" 	0
scalar Container_A.rackSwitch_0.relayUnit 	"number of dispatched BPDU frames to the network" 	0
scalar Container_A.rackSwitch_0.relayUnit 	"number of dispatched non-BDPU frames to the network" 	0
scalar Container_A.rackSwitch_0.eth[0].mac 	"simulated time" 	3.000016
scalar Container_A.rackSwitch_0.eth[0].mac 	full-duplex 	1
scalar Container_A.rackSwitch_0.eth[0].mac 	"frames/sec sent" 	0
scalar Container_A.rackSwitch_0.eth[0].mac 	"frames/sec rcvd" 	0
scalar Container_A.rackSwitch_0.eth[0].mac 	"bits/sec sent" 	0
scalar Container_A.rackSwitch_0.eth[0].mac 	"bits/sec rcvd" 	0
scalar Container_A.rackSwitch_0.eth[0].mac 	"rx channel idle (%)" 	100
scalar Container_A.rackSwitch_0.eth[0].mac 	"rx channel utilization (%)" 	0
scalar Container_A.rackSwitch_0.eth[0].mac 	"rx channel collision (%)" 	0
scalar Container_A.rackSwitch_0.eth[0].mac 	collisions 	0
scalar Container_A.rackSwitch_0.eth[0].mac 	backoffs 	0
scalar Container_A.rackSwitch_0.eth[0].mac 	backoff:count 	0
attr interpolationmode  none
attr title  "backoff, count"
scalar Container_A.rackSwitch_0.eth[0].mac 	collision:count 	0
attr interpolationmode  none
attr title  "collision, count"
scalar Container_A.rackSwitch_0.eth[0].mac 	droppedPkNotForUs:count 	0
attr interpolationmode  none
attr source  dropPkNotForUs
attr title  "packets dropped/not for us, count"
scalar Container_A.rackSwitch_0.eth[0].mac 	droppedPkNotForUs:sum(packetBytes) 	0
attr interpolationmode  none
attr source  dropPkNotForUs
attr title  "packets dropped/not for us, sum(packetBytes)"
scalar Container_A.rackSwitch_0.eth[0].mac 	droppedPkIfaceDown:count 	0
attr interpolationmode  none
attr source  dropPkIfaceDown
attr title  "packets dropped/interface down, count"
scalar Container_A.rackSwitch_0.eth[0].mac 	droppedPkIfaceDown:sum(packetBytes) 	0
attr interpolationmode  none
attr source  dropPkIfaceDown
attr title  "packets dropped/interface down, sum(packetBytes)"
scalar Container_A.rackSwitch_0.eth[0].mac 	droppedPkBitError:count 	0
attr interpolationmode  none
attr source  dropPkBitError
attr title  "packets dropped/bit error, count"
scalar Container_A.rackSwitch_0.eth[0].mac 	droppedPkBitError:sum(packetBytes) 	0
attr interpolationmode  none
attr source  dropPkBitError
attr title  "packets dropped/bit error, sum(packetBytes)"
scalar Container_A.rackSwitch_0.eth[0].mac 	rxPkFromHL:count 	0
attr interpolationmode  none
attr source  rxPkFromHL
attr title  "packet bytes from higher layer, count"
scalar Container_A.rackSwitch_0.eth[0].mac 	rxPkFromHL:sum(packetBytes) 	0
attr interpolationmode  none
attr source  rxPkFromHL
attr title  "packet bytes from higher layer, sum(packetBytes)"
scalar Container_A.rackSwitch_0.eth[0].mac 	rxPausePkUnits:count 	0
attr interpolationmode  none
attr title  "pause units received, count"
scalar Container_A.rackSwitch_0.eth[0].mac 	rxPausePkUnits:sum 	0
attr interpolationmode  none
attr title  "pause units received, sum"
scalar Container_A.rackSwitch_0.eth[0].mac 	txPausePkUnits:count 	0
attr interpolationmode  none
attr title  "pause units sent, count"
scalar Container_A.rackSwitch_0.eth[0].mac 	txPausePkUnits:sum 	0
attr interpolationmode  none
attr title  "pause units sent, sum"
scalar Container_A.rackSwitch_0.eth[0].mac 	rxPkOk:count 	0
attr interpolationmode  none
attr source  rxPkOk
attr title  "packets received OK, count"
scalar Container_A.rackSwitch_0.eth[0].mac 	rxPkOk:sum(packetBytes) 	0
attr interpolationmode  none
attr source  rxPkOk
attr title  "packets received OK, sum(packetBytes)"
scalar Container_A.rackSwitch_0.eth[0].mac 	txPk:count 	0
attr interpolationmode  none
attr source  txPk
attr title  "packets transmitted, count"
scalar Container_A.rackSwitch_0.eth[0].mac 	txPk:sum(packetBytes) 	0
attr interpolationmode  none
attr source  txPk
attr title  "packets transmitted, sum(packetBytes)"
scalar Container_A.rackSwitch_0.eth[0].mac 	passedUpPk:count 	0
attr interpolationmode  none
attr source  packetSentToUpper
attr title  "packets passed to higher layer, count"
scalar Container_A.rackSwitch_0.eth[0].mac 	passedUpPk:sum(packetBytes) 	0
attr interpolationmode  none
attr source  packetSentToUpper
attr title  "packets passed to higher layer, sum(packetBytes)"
scalar Container_A.rackSwitch_0.eth[1].mac 	"simulated time" 	3.000016
scalar Container_A.rackSwitch_0.eth[1].mac 	full-duplex 	1
scalar Container_A.rackSwitch_0.eth[1].mac 	"frames/sec sent" 	0
scalar Container_A.rackSwitch_0.eth[1].mac 	"frames/sec rcvd" 	0
scalar Container_A.rackSwitch_0.eth[1].mac 	"bits/sec sent" 	0
scalar Container_A.rackSwitch_0.eth[1].mac 	"bits/sec rcvd" 	0
scalar Container_A.rackSwitch_0.eth[1].mac 	"rx channel idle (%)" 	100
scalar Container_A.rackSwitch_0.eth[1].mac 	"rx channel utilization (%)" 	0
scalar Container_A.rackSwitch_0.eth[1].mac 	"rx channel collision (%)" 	0
scalar Container_A.rackSwitch_0.eth[1].mac 	collisions 	0
scalar Container_A.rackSwitch_0.eth[1].mac 	backoffs 	0
scalar Container_A.rackSwitch_0.eth[1].mac 	backoff:count 	0
attr interpolationmode  none
attr title  "backoff, count"
scalar Container_A.rackSwitch_0.eth[1].mac 	collision:count 	0
attr interpolationmode  none
attr title  "collision, count"
scalar Container_A.rackSwitch_0.eth[1].mac 	droppedPkNotForUs:count 	0
attr interpolationmode  none
attr source  dropPkNotForUs
attr title  "packets dropped/not for us, count"
scalar Container_A.rackSwitch_0.eth[1].mac 	droppedPkNotForUs:sum(packetBytes) 	0
attr interpolationmode  none
attr source  dropPkNotForUs
attr title  "packets dropped/not for us, sum(packetBytes)"
scalar Container_A.rackSwitch_0.eth[1].mac 	droppedPkIfaceDown:count 	0
attr interpolationmode  none
attr source  dropPkIfaceDown
attr title  "packets dropped/interface down, count"
scalar Container_A.rackSwitch_0.eth[1].mac 	droppedPkIfaceDown:sum(packetBytes) 	0
attr interpolationmode  none
attr source  dropPkIfaceDown
attr title  "packets dropped/interface down, sum(packetBytes)"
scalar Container_A.rackSwitch_0.eth[1].mac 	droppedPkBitError:count 	0
attr interpolationmode  none
attr source  dropPkBitError
attr title  "packets dropped/bit error, count"
scalar Container_A.rackSwitch_0.eth[1].mac 	droppedPkBitError:sum(packetBytes) 	0
attr interpolationmode  none
attr source  dropPkBitError
attr title  "packets dropped/bit error, sum(packetBytes)"
scalar Container_A.rackSwitch_0.eth[1].mac 	rxPkFromHL:count 	0
attr interpolationmode  none
attr source  rxPkFromHL
attr title  "packet bytes from higher layer, count"
scalar Container_A.rackSwitch_0.eth[1].mac 	rxPkFromHL:sum(packetBytes) 	0
attr interpolationmode  none
attr source  rxPkFromHL
attr title  "packet bytes from higher layer, sum(packetBytes)"
scalar Container_A.rackSwitch_0.eth[1].mac 	rxPausePkUnits:count 	0
attr interpolationmode  none
attr title  "pause units received, count"
scalar Container_A.rackSwitch_0.eth[1].mac 	rxPausePkUnits:sum 	0
attr interpolationmode  none
attr title  "pause units received, sum"
scalar Container_A.rackSwitch_0.eth[1].mac 	txPausePkUnits:count 	0
attr interpolationmode  none
attr title  "pause units sent, count"
scalar Container_A.rackSwitch_0.eth[1].mac 	txPausePkUnits:sum 	0
attr interpolationmode  none
attr title  "pause units sent, sum"
scalar Container_A.rackSwitch_0.eth[1].mac 	rxPkOk:count 	0
attr interpolationmode  none
attr source  rxPkOk
attr title  "packets received OK, count"
scalar Container_A.rackSwitch_0.eth[1].mac 	rxPkOk:sum(packetBytes) 	0
attr interpolationmode  none
attr source  rxPkOk
attr title  "packets received OK, sum(packetBytes)"
scalar Container_A.rackSwitch_0.eth[1].mac 	txPk:count 	0
attr interpolationmode  none
attr source  txPk
attr title  "packets transmitted, count"
scalar Container_A.rackSwitch_0.eth[1].mac 	txPk:sum(packetBytes) 	0
attr interpolationmode  none
attr source  txPk
attr title  "packets transmitted, sum(packetBytes)"
scalar Container_A.rackSwitch_0.eth[1].mac 	passedUpPk:count 	0
attr interpolationmode  none
attr source  packetSentToUpper
attr title  "packets passed to higher layer, count"
scalar Container_A.rackSwitch_0.eth[1].mac 	passedUpPk:sum(packetBytes) 	0
attr interpolationmode  none
attr source  packetSentToUpper
attr title  "packets passed to higher layer, sum(packetBytes)"
scalar Container_A.rackSwitch_0.eth[2].mac 	"simulated time" 	3.000016
scalar Container_A.rackSwitch_0.eth[2].mac 	full-duplex 	1
scalar Container_A.rackSwitch_0.eth[2].mac 	"frames/sec sent" 	0
scalar Container_A.rackSwitch_0.eth[2].mac 	"frames/sec rcvd" 	0
scalar Container_A.rackSwitch_0.eth[2].mac 	"bits/sec sent" 	0
scalar Container_A.rackSwitch_0.eth[2].mac 	"bits/sec rcvd" 	0
scalar Container_A.rackSwitch_0.eth[2].mac 	"rx channel idle (%)" 	100
scalar Container_A.rackSwitch_0.eth[2].mac 	"rx channel utilization (%)" 	0
scalar Container_A.rackSwitch_0.eth[2].mac 	"rx channel collision (%)" 	0
scalar Container_A.rackSwitch_0.eth[2].mac 	collisions 	0
scalar Container_A.rackSwitch_0.eth[2].mac 	backoffs 	0
scalar Container_A.rackSwitch_0.eth[2].mac 	backoff:count 	0
attr interpolationmode  none
attr title  "backoff, count"
scalar Container_A.rackSwitch_0.eth[2].mac 	collision:count 	0
attr interpolationmode  none
attr title  "collision, count"
scalar Container_A.rackSwitch_0.eth[2].mac 	droppedPkNotForUs:count 	0
attr interpolationmode  none
attr source  dropPkNotForUs
attr title  "packets dropped/not for us, count"
scalar Container_A.rackSwitch_0.eth[2].mac 	droppedPkNotForUs:sum(packetBytes) 	0
attr interpolationmode  none
attr source  dropPkNotForUs
attr title  "packets dropped/not for us, sum(packetBytes)"
scalar Container_A.rackSwitch_0.eth[2].mac 	droppedPkIfaceDown:count 	0
attr interpolationmode  none
attr source  dropPkIfaceDown
attr title  "packets dropped/interface down, count"
scalar Container_A.rackSwitch_0.eth[2].mac 	droppedPkIfaceDown:sum(packetBytes) 	0
attr interpolationmode  none
attr source  dropPkIfaceDown
attr title  "packets dropped/interface down, sum(packetBytes)"
scalar Container_A.rackSwitch_0.eth[2].mac 	droppedPkBitError:count 	0
attr interpolationmode  none
attr source  dropPkBitError
attr title  "packets dropped/bit error, count"
scalar Container_A.rackSwitch_0.eth[2].mac 	droppedPkBitError:sum(packetBytes) 	0
attr interpolationmode  none
attr source  dropPkBitError
attr title  "packets dropped/bit error, sum(packetBytes)"
scalar Container_A.rackSwitch_0.eth[2].mac 	rxPkFromHL:count 	0
attr interpolationmode  none
attr source  rxPkFromHL
attr title  "packet bytes from higher layer, count"
scalar Container_A.rackSwitch_0.eth[2].mac 	rxPkFromHL:sum(packetBytes) 	0
attr interpolationmode  none
attr source  rxPkFromHL
attr title  "packet bytes from higher layer, sum(packetBytes)"
scalar Container_A.rackSwitch_0.eth[2].mac 	rxPausePkUnits:count 	0
attr interpolationmode  none
attr title  "pause units received, count"
scalar Container_A.rackSwitch_0.eth[2].mac 	rxPausePkUnits:sum 	0
attr interpolationmode  none
attr title  "pause units received, sum"
scalar Container_A.rackSwitch_0.eth[2].mac 	txPausePkUnits:count 	0
attr interpolationmode  none
attr title  "pause units sent, count"
scalar Container_A.rackSwitch_0.eth[2].mac 	txPausePkUnits:sum 	0
attr interpolationmode  none
attr title  "pause units sent, sum"
scalar Container_A.rackSwitch_0.eth[2].mac 	rxPkOk:count 	0
attr interpolationmode  none
attr source  rxPkOk
attr title  "packets received OK, count"
scalar Container_A.rackSwitch_0.eth[2].mac 	rxPkOk:sum(packetBytes) 	0
attr interpolationmode  none
attr source  rxPkOk
attr title  "packets received OK, sum(packetBytes)"
scalar Container_A.rackSwitch_0.eth[2].mac 	txPk:count 	0
attr interpolationmode  none
attr source  txPk
attr title  "packets transmitted, count"
scalar Container_A.rackSwitch_0.eth[2].mac 	txPk:sum(packetBytes) 	0
attr interpolationmode  none
attr source  txPk
attr title  "packets transmitted, sum(packetBytes)"
scalar Container_A.rackSwitch_0.eth[2].mac 	passedUpPk:count 	0
attr interpolationmode  none
attr source  packetSentToUpper
attr title  "packets passed to higher layer, count"
scalar Container_A.rackSwitch_0.eth[2].mac 	passedUpPk:sum(packetBytes) 	0
attr interpolationmode  none
attr source  packetSentToUpper
attr title  "packets passed to higher layer, sum(packetBytes)"
scalar Container_A.rackSwitch_0.eth[3].mac 	"simulated time" 	3.000016
scalar Container_A.rackSwitch_0.eth[3].mac 	full-duplex 	1
scalar Container_A.rackSwitch_0.eth[3].mac 	"frames/sec sent" 	0
scalar Container_A.rackSwitch_0.eth[3].mac 	"frames/sec rcvd" 	0
scalar Container_A.rackSwitch_0.eth[3].mac 	"bits/sec sent" 	0
scalar Container_A.rackSwitch_0.eth[3].mac 	"bits/sec rcvd" 	0
scalar Container_A.rackSwitch_0.eth[3].mac 	"rx channel idle (%)" 	100
scalar Container_A.rackSwitch_0.eth[3].mac 	"rx channel utilization (%)" 	0
scalar Container_A.rackSwitch_0.eth[3].mac 	"rx channel collision (%)" 	0
scalar Container_A.rackSwitch_0.eth[3].mac 	collisions 	0
scalar Container_A.rackSwitch_0.eth[3].mac 	backoffs 	0
scalar Container_A.rackSwitch_0.eth[3].mac 	backoff:count 	0
attr interpolationmode  none
attr title  "backoff, count"
scalar Container_A.rackSwitch_0.eth[3].mac 	collision:count 	0
attr interpolationmode  none
attr title  "collision, count"
scalar Container_A.rackSwitch_0.eth[3].mac 	droppedPkNotForUs:count 	0
attr interpolationmode  none
attr source  dropPkNotForUs
attr title  "packets dropped/not for us, count"
scalar Container_A.rackSwitch_0.eth[3].mac 	droppedPkNotForUs:sum(packetBytes) 	0
attr interpolationmode  none
attr source  dropPkNotForUs
attr title  "packets dropped/not for us, sum(packetBytes)"
scalar Container_A.rackSwitch_0.eth[3].mac 	droppedPkIfaceDown:count 	0
attr interpolationmode  none
attr source  dropPkIfaceDown
attr title  "packets dropped/interface down, count"
scalar Container_A.rackSwitch_0.eth[3].mac 	droppedPkIfaceDown:sum(packetBytes) 	0
attr interpolationmode  none
attr source  dropPkIfaceDown
attr title  "packets dropped/interface down, sum(packetBytes)"
scalar Container_A.rackSwitch_0.eth[3].mac 	droppedPkBitError:count 	0
attr interpolationmode  none
attr source  dropPkBitError
attr title  "packets dropped/bit error, count"
scalar Container_A.rackSwitch_0.eth[3].mac 	droppedPkBitError:sum(packetBytes) 	0
attr interpolationmode  none
attr source  dropPkBitError
attr title  "packets dropped/bit error, sum(packetBytes)"
scalar Container_A.rackSwitch_0.eth[3].mac 	rxPkFromHL:count 	0
attr interpolationmode  none
attr source  rxPkFromHL
attr title  "packet bytes from higher layer, count"
scalar Container_A.rackSwitch_0.eth[3].mac 	rxPkFromHL:sum(packetBytes) 	0
attr interpolationmode  none
attr source  rxPkFromHL
attr title  "packet bytes from higher layer, sum(packetBytes)"
scalar Container_A.rackSwitch_0.eth[3].mac 	rxPausePkUnits:count 	0
attr interpolationmode  none
attr title  "pause units received, count"
scalar Container_A.rackSwitch_0.eth[3].mac 	rxPausePkUnits:sum 	0
attr interpolationmode  none
attr title  "pause units received, sum"
scalar Container_A.rackSwitch_0.eth[3].mac 	txPausePkUnits:count 	0
attr interpolationmode  none
attr title  "pause units sent, count"
scalar Container_A.rackSwitch_0.eth[3].mac 	txPausePkUnits:sum 	0
attr interpolationmode  none
attr title  "pause units sent, sum"
scalar Container_A.rackSwitch_0.eth[3].mac 	rxPkOk:count 	0
attr interpolationmode  none
attr source  rxPkOk
attr title  "packets received OK, count"
scalar Container_A.rackSwitch_0.eth[3].mac 	rxPkOk:sum(packetBytes) 	0
attr interpolationmode  none
attr source  rxPkOk
attr title  "packets received OK, sum(packetBytes)"
scalar Container_A.rackSwitch_0.eth[3].mac 	txPk:count 	0
attr interpolationmode  none
attr source  txPk
attr title  "packets transmitted, count"
scalar Container_A.rackSwitch_0.eth[3].mac 	txPk:sum(packetBytes) 	0
attr interpolationmode  none
attr source  txPk
attr title  "packets transmitted, sum(packetBytes)"
scalar Container_A.rackSwitch_0.eth[3].mac 	passedUpPk:count 	0
attr interpolationmode  none
attr source  packetSentToUpper
attr title  "packets passed to higher layer, count"
scalar Container_A.rackSwitch_0.eth[3].mac 	passedUpPk:sum(packetBytes) 	0
attr interpolationmode  none
attr source  packetSentToUpper
attr title  "packets passed to higher layer, sum(packetBytes)"
scalar Container_A.rackSwitch_1.relayUnit 	"number of received BPDUs from STP module" 	0
scalar Container_A.rackSwitch_1.relayUnit 	"number of received frames from network (including BPDUs)" 	0
scalar Container_A.rackSwitch_1.relayUnit 	"number of dropped frames (including BPDUs)" 	0
scalar Container_A.rackSwitch_1.relayUnit 	"number of delivered BPDUs to the STP module" 	0
scalar Container_A.rackSwitch_1.relayUnit 	"number of dispatched BPDU frames to the network" 	0
scalar Container_A.rackSwitch_1.relayUnit 	"number of dispatched non-BDPU frames to the network" 	0
scalar Container_A.rackSwitch_1.eth[0].mac 	"simulated time" 	3.000016
scalar Container_A.rackSwitch_1.eth[0].mac 	full-duplex 	1
scalar Container_A.rackSwitch_1.eth[0].mac 	"frames/sec sent" 	0
scalar Container_A.rackSwitch_1.eth[0].mac 	"frames/sec rcvd" 	0
scalar Container_A.rackSwitch_1.eth[0].mac 	"bits/sec sent" 	0
scalar Container_A.rackSwitch_1.eth[0].mac 	"bits/sec rcvd" 	0
scalar Container_A.rackSwitch_1.eth[0].mac 	"rx channel idle (%)" 	100
scalar Container_A.rackSwitch_1.eth[0].mac 	"rx channel utilization (%)" 	0
scalar Container_A.rackSwitch_1.eth[0].mac 	"rx channel collision (%)" 	0
scalar Container_A.rackSwitch_1.eth[0].mac 	collisions 	0
scalar Container_A.rackSwitch_1.eth[0].mac 	backoffs 	0
scalar Container_A.rackSwitch_1.eth[0].mac 	backoff:count 	0
attr interpolationmode  none
attr title  "backoff, count"
scalar Container_A.rackSwitch_1.eth[0].mac 	collision:count 	0
attr interpolationmode  none
attr title  "collision, count"
scalar Container_A.rackSwitch_1.eth[0].mac 	droppedPkNotForUs:count 	0
attr interpolationmode  none
attr source  dropPkNotForUs
attr title  "packets dropped/not for us, count"
scalar Container_A.rackSwitch_1.eth[0].mac 	droppedPkNotForUs:sum(packetBytes) 	0
attr interpolationmode  none
attr source  dropPkNotForUs
attr title  "packets dropped/not for us, sum(packetBytes)"
scalar Container_A.rackSwitch_1.eth[0].mac 	droppedPkIfaceDown:count 	0
attr interpolationmode  none
attr source  dropPkIfaceDown
attr title  "packets dropped/interface down, count"
scalar Container_A.rackSwitch_1.eth[0].mac 	droppedPkIfaceDown:sum(packetBytes) 	0
attr interpolationmode  none
attr source  dropPkIfaceDown
attr title  "packets dropped/interface down, sum(packetBytes)"
scalar Container_A.rackSwitch_1.eth[0].mac 	droppedPkBitError:count 	0
attr interpolationmode  none
attr source  dropPkBitError
attr title  "packets dropped/bit error, count"
scalar Container_A.rackSwitch_1.eth[0].mac 	droppedPkBitError:sum(packetBytes) 	0
attr interpolationmode  none
attr source  dropPkBitError
attr title  "packets dropped/bit error, sum(packetBytes)"
scalar Container_A.rackSwitch_1.eth[0].mac 	rxPkFromHL:count 	0
attr interpolationmode  none
attr source  rxPkFromHL
attr title  "packet bytes from higher layer, count"
scalar Container_A.rackSwitch_1.eth[0].mac 	rxPkFromHL:sum(packetBytes) 	0
attr interpolationmode  none
attr source  rxPkFromHL
attr title  "packet bytes from higher layer, sum(packetBytes)"
scalar Container_A.rackSwitch_1.eth[0].mac 	rxPausePkUnits:count 	0
attr interpolationmode  none
attr title  "pause units received, count"
scalar Container_A.rackSwitch_1.eth[0].mac 	rxPausePkUnits:sum 	0
attr interpolationmode  none
attr title  "pause units received, sum"
scalar Container_A.rackSwitch_1.eth[0].mac 	txPausePkUnits:count 	0
attr interpolationmode  none
attr title  "pause units sent, count"
scalar Container_A.rackSwitch_1.eth[0].mac 	txPausePkUnits:sum 	0
attr interpolationmode  none
attr title  "pause units sent, sum"
scalar Container_A.rackSwitch_1.eth[0].mac 	rxPkOk:count 	0
attr interpolationmode  none
attr source  rxPkOk
attr title  "packets received OK, count"
scalar Container_A.rackSwitch_1.eth[0].mac 	rxPkOk:sum(packetBytes) 	0
attr interpolationmode  none
attr source  rxPkOk
attr title  "packets received OK, sum(packetBytes)"
scalar Container_A.rackSwitch_1.eth[0].mac 	txPk:count 	0
attr interpolationmode  none
attr source  txPk
attr title  "packets transmitted, count"
scalar Container_A.rackSwitch_1.eth[0].mac 	txPk:sum(packetBytes) 	0
attr interpolationmode  none
attr source  txPk
attr title  "packets transmitted, sum(packetBytes)"
scalar Container_A.rackSwitch_1.eth[0].mac 	passedUpPk:count 	0
attr interpolationmode  none
attr source  packetSentToUpper
attr title  "packets passed to higher layer, count"
scalar Container_A.rackSwitch_1.eth[0].mac 	passedUpPk:sum(packetBytes) 	0
attr interpolationmode  none
attr source  packetSentToUpper
attr title  "packets passed to higher layer, sum(packetBytes)"
scalar Container_A.rackSwitch_1.eth[1].mac 	"simulated time" 	3.000016
scalar Container_A.rackSwitch_1.eth[1].mac 	full-duplex 	1
scalar Container_A.rackSwitch_1.eth[1].mac 	"frames/sec sent" 	0
scalar Container_A.rackSwitch_1.eth[1].mac 	"frames/sec rcvd" 	0
scalar Container_A.rackSwitch_1.eth[1].mac 	"bits/sec sent" 	0
scalar Container_A.rackSwitch_1.eth[1].mac 	"bits/sec rcvd" 	0
scalar Container_A.rackSwitch_1.eth[1].mac 	"rx channel idle (%)" 	100
scalar Container_A.rackSwitch_1.eth[1].mac 	"rx channel utilization (%)" 	0
scalar Container_A.rackSwitch_1.eth[1].mac 	"rx channel collision (%)" 	0
scalar Container_A.rackSwitch_1.eth[1].mac 	collisions 	0
scalar Container_A.rackSwitch_1.eth[1].mac 	backoffs 	0
scalar Container_A.rackSwitch_1.eth[1].mac 	backoff:count 	0
attr interpolationmode  none
attr title  "backoff, count"
scalar Container_A.rackSwitch_1.eth[1].mac 	collision:count 	0
attr interpolationmode  none
attr title  "collision, count"
scalar Container_A.rackSwitch_1.eth[1].mac 	droppedPkNotForUs:count 	0
attr interpolationmode  none
attr source  dropPkNotForUs
attr title  "packets dropped/not for us, count"
scalar Container_A.rackSwitch_1.eth[1].mac 	droppedPkNotForUs:sum(packetBytes) 	0
attr interpolationmode  none
attr source  dropPkNotForUs
attr title  "packets dropped/not for us, sum(packetBytes)"
scalar Container_A.rackSwitch_1.eth[1].mac 	droppedPkIfaceDown:count 	0
attr interpolationmode  none
attr source  dropPkIfaceDown
attr title  "packets dropped/interface down, count"
scalar Container_A.rackSwitch_1.eth[1].mac 	droppedPkIfaceDown:sum(packetBytes) 	0
attr interpolationmode  none
attr source  dropPkIfaceDown
attr title  "packets dropped/interface down, sum(packetBytes)"
scalar Container_A.rackSwitch_1.eth[1].mac 	droppedPkBitError:count 	0
attr interpolationmode  none
attr source  dropPkBitError
attr title  "packets dropped/bit error, count"
scalar Container_A.rackSwitch_1.eth[1].mac 	droppedPkBitError:sum(packetBytes) 	0
attr interpolationmode  none
attr source  dropPkBitError
attr title  "packets dropped/bit error, sum(packetBytes)"
scalar Container_A.rackSwitch_1.eth[1].mac 	rxPkFromHL:count 	0
attr interpolationmode  none
attr source  rxPkFromHL
attr title  "packet bytes from higher layer, count"
scalar Container_A.rackSwitch_1.eth[1].mac 	rxPkFromHL:sum(packetBytes) 	0
attr interpolationmode  none
attr source  rxPkFromHL
attr title  "packet bytes from higher layer, sum(packetBytes)"
scalar Container_A.rackSwitch_1.eth[1].mac 	rxPausePkUnits:count 	0
attr interpolationmode  none
attr title  "pause units received, count"
scalar Container_A.rackSwitch_1.eth[1].mac 	rxPausePkUnits:sum 	0
attr interpolationmode  none
attr title  "pause units received, sum"
scalar Container_A.rackSwitch_1.eth[1].mac 	txPausePkUnits:count 	0
attr interpolationmode  none
attr title  "pause units sent, count"
scalar Container_A.rackSwitch_1.eth[1].mac 	txPausePkUnits:sum 	0
attr interpolationmode  none
attr title  "pause units sent, sum"
scalar Container_A.rackSwitch_1.eth[1].mac 	rxPkOk:count 	0
attr interpolationmode  none
attr source  rxPkOk
attr title  "packets received OK, count"
scalar Container_A.rackSwitch_1.eth[1].mac 	rxPkOk:sum(packetBytes) 	0
attr interpolationmode  none
attr source  rxPkOk
attr title  "packets received OK, sum(packetBytes)"
scalar Container_A.rackSwitch_1.eth[1].mac 	txPk:count 	0
attr interpolationmode  none
attr source  txPk
attr title  "packets transmitted, count"
scalar Container_A.rackSwitch_1.eth[1].mac 	txPk:sum(packetBytes) 	0
attr interpolationmode  none
attr source  txPk
attr title  "packets transmitted, sum(packetBytes)"
scalar Container_A.rackSwitch_1.eth[1].mac 	passedUpPk:count 	0
attr interpolationmode  none
attr source  packetSentToUpper
attr title  "packets passed to higher layer, count"
scalar Container_A.rackSwitch_1.eth[1].mac 	passedUpPk:sum(packetBytes) 	0
attr interpolationmode  none
attr source  packetSentToUpper
attr title  "packets passed to higher layer, sum(packetBytes)"
scalar Container_A.rackSwitch_1.eth[2].mac 	"simulated time" 	3.000016
scalar Container_A.rackSwitch_1.eth[2].mac 	full-duplex 	1
scalar Container_A.rackSwitch_1.eth[2].mac 	"frames/sec sent" 	0
scalar Container_A.rackSwitch_1.eth[2].mac 	"frames/sec rcvd" 	0
scalar Container_A.rackSwitch_1.eth[2].mac 	"bits/sec sent" 	0
scalar Container_A.rackSwitch_1.eth[2].mac 	"bits/sec rcvd" 	0
scalar Container_A.rackSwitch_1.eth[2].mac 	"rx channel idle (%)" 	100
scalar Container_A.rackSwitch_1.eth[2].mac 	"rx channel utilization (%)" 	0
scalar Container_A.rackSwitch_1.eth[2].mac 	"rx channel collision (%)" 	0
scalar Container_A.rackSwitch_1.eth[2].mac 	collisions 	0
scalar Container_A.rackSwitch_1.eth[2].mac 	backoffs 	0
scalar Container_A.rackSwitch_1.eth[2].mac 	backoff:count 	0
attr interpolationmode  none
attr title  "backoff, count"
scalar Container_A.rackSwitch_1.eth[2].mac 	collision:count 	0
attr interpolationmode  none
attr title  "collision, count"
scalar Container_A.rackSwitch_1.eth[2].mac 	droppedPkNotForUs:count 	0
attr interpolationmode  none
attr source  dropPkNotForUs
attr title  "packets dropped/not for us, count"
scalar Container_A.rackSwitch_1.eth[2].mac 	droppedPkNotForUs:sum(packetBytes) 	0
attr interpolationmode  none
attr source  dropPkNotForUs
attr title  "packets dropped/not for us, sum(packetBytes)"
scalar Container_A.rackSwitch_1.eth[2].mac 	droppedPkIfaceDown:count 	0
attr interpolationmode  none
attr source  dropPkIfaceDown
attr title  "packets dropped/interface down, count"
scalar Container_A.rackSwitch_1.eth[2].mac 	droppedPkIfaceDown:sum(packetBytes) 	0
attr interpolationmode  none
attr source  dropPkIfaceDown
attr title  "packets dropped/interface down, sum(packetBytes)"
scalar Container_A.rackSwitch_1.eth[2].mac 	droppedPkBitError:count 	0
attr interpolationmode  none
attr source  dropPkBitError
attr title  "packets dropped/bit error, count"
scalar Container_A.rackSwitch_1.eth[2].mac 	droppedPkBitError:sum(packetBytes) 	0
attr interpolationmode  none
attr source  dropPkBitError
attr title  "packets dropped/bit error, sum(packetBytes)"
scalar Container_A.rackSwitch_1.eth[2].mac 	rxPkFromHL:count 	0
attr interpolationmode  none
attr source  rxPkFromHL
attr title  "packet bytes from higher layer, count"
scalar Container_A.rackSwitch_1.eth[2].mac 	rxPkFromHL:sum(packetBytes) 	0
attr interpolationmode  none
attr source  rxPkFromHL
attr title  "packet bytes from higher layer, sum(packetBytes)"
scalar Container_A.rackSwitch_1.eth[2].mac 	rxPausePkUnits:count 	0
attr interpolationmode  none
attr title  "pause units received, count"
scalar Container_A.rackSwitch_1.eth[2].mac 	rxPausePkUnits:sum 	0
attr interpolationmode  none
attr title  "pause units received, sum"
scalar Container_A.rackSwitch_1.eth[2].mac 	txPausePkUnits:count 	0
attr interpolationmode  none
attr title  "pause units sent, count"
scalar Container_A.rackSwitch_1.eth[2].mac 	txPausePkUnits:sum 	0
attr interpolationmode  none
attr title  "pause units sent, sum"
scalar Container_A.rackSwitch_1.eth[2].mac 	rxPkOk:count 	0
attr interpolationmode  none
attr source  rxPkOk
attr title  "packets received OK, count"
scalar Container_A.rackSwitch_1.eth[2].mac 	rxPkOk:sum(packetBytes) 	0
attr interpolationmode  none
attr source  rxPkOk
attr title  "packets received OK, sum(packetBytes)"
scalar Container_A.rackSwitch_1.eth[2].mac 	txPk:count 	0
attr interpolationmode  none
attr source  txPk
attr title  "packets transmitted, count"
scalar Container_A.rackSwitch_1.eth[2].mac 	txPk:sum(packetBytes) 	0
attr interpolationmode  none
attr source  txPk
attr title  "packets transmitted, sum(packetBytes)"
scalar Container_A.rackSwitch_1.eth[2].mac 	passedUpPk:count 	0
attr interpolationmode  none
attr source  packetSentToUpper
attr title  "packets passed to higher layer, count"
scalar Container_A.rackSwitch_1.eth[2].mac 	passedUpPk:sum(packetBytes) 	0
attr interpolationmode  none
attr source  packetSentToUpper
attr title  "packets passed to higher layer, sum(packetBytes)"
scalar Container_A.rackSwitch_1.eth[3].mac 	"simulated time" 	3.000016
scalar Container_A.rackSwitch_1.eth[3].mac 	full-duplex 	1
scalar Container_A.rackSwitch_1.eth[3].mac 	"frames/sec sent" 	0
scalar Container_A.rackSwitch_1.eth[3].mac 	"frames/sec rcvd" 	0
scalar Container_A.rackSwitch_1.eth[3].mac 	"bits/sec sent" 	0
scalar Container_A.rackSwitch_1.eth[3].mac 	"bits/sec rcvd" 	0
scalar Container_A.rackSwitch_1.eth[3].mac 	"rx channel idle (%)" 	100
scalar Container_A.rackSwitch_1.eth[3].mac 	"rx channel utilization (%)" 	0
scalar Container_A.rackSwitch_1.eth[3].mac 	"rx channel collision (%)" 	0
scalar Container_A.rackSwitch_1.eth[3].mac 	collisions 	0
scalar Container_A.rackSwitch_1.eth[3].mac 	backoffs 	0
scalar Container_A.rackSwitch_1.eth[3].mac 	backoff:count 	0
attr interpolationmode  none
attr title  "backoff, count"
scalar Container_A.rackSwitch_1.eth[3].mac 	collision:count 	0
attr interpolationmode  none
attr title  "collision, count"
scalar Container_A.rackSwitch_1.eth[3].mac 	droppedPkNotForUs:count 	0
attr interpolationmode  none
attr source  dropPkNotForUs
attr title  "packets dropped/not for us, count"
scalar Container_A.rackSwitch_1.eth[3].mac 	droppedPkNotForUs:sum(packetBytes) 	0
attr interpolationmode  none
attr source  dropPkNotForUs
attr title  "packets dropped/not for us, sum(packetBytes)"
scalar Container_A.rackSwitch_1.eth[3].mac 	droppedPkIfaceDown:count 	0
attr interpolationmode  none
attr source  dropPkIfaceDown
attr title  "packets dropped/interface down, count"
scalar Container_A.rackSwitch_1.eth[3].mac 	droppedPkIfaceDown:sum(packetBytes) 	0
attr interpolationmode  none
attr source  dropPkIfaceDown
attr title  "packets dropped/interface down, sum(packetBytes)"
scalar Container_A.rackSwitch_1.eth[3].mac 	droppedPkBitError:count 	0
attr interpolationmode  none
attr source  dropPkBitError
attr title  "packets dropped/bit error, count"
scalar Container_A.rackSwitch_1.eth[3].mac 	droppedPkBitError:sum(packetBytes) 	0
attr interpolationmode  none
attr source  dropPkBitError
attr title  "packets dropped/bit error, sum(packetBytes)"
scalar Container_A.rackSwitch_1.eth[3].mac 	rxPkFromHL:count 	0
attr interpolationmode  none
attr source  rxPkFromHL
attr title  "packet bytes from higher layer, count"
scalar Container_A.rackSwitch_1.eth[3].mac 	rxPkFromHL:sum(packetBytes) 	0
attr interpolationmode  none
attr source  rxPkFromHL
attr title  "packet bytes from higher layer, sum(packetBytes)"
scalar Container_A.rackSwitch_1.eth[3].mac 	rxPausePkUnits:count 	0
attr interpolationmode  none
attr title  "pause units received, count"
scalar Container_A.rackSwitch_1.eth[3].mac 	rxPausePkUnits:sum 	0
attr interpolationmode  none
attr title  "pause units received, sum"
scalar Container_A.rackSwitch_1.eth[3].mac 	txPausePkUnits:count 	0
attr interpolationmode  none
attr title  "pause units sent, count"
scalar Container_A.rackSwitch_1.eth[3].mac 	txPausePkUnits:sum 	0
attr interpolationmode  none
attr title  "pause units sent, sum"
scalar Container_A.rackSwitch_1.eth[3].mac 	rxPkOk:count 	0
attr interpolationmode  none
attr source  rxPkOk
attr title  "packets received OK, count"
scalar Container_A.rackSwitch_1.eth[3].mac 	rxPkOk:sum(packetBytes) 	0
attr interpolationmode  none
attr source  rxPkOk
attr title  "packets received OK, sum(packetBytes)"
scalar Container_A.rackSwitch_1.eth[3].mac 	txPk:count 	0
attr interpolationmode  none
attr source  txPk
attr title  "packets transmitted, count"
scalar Container_A.rackSwitch_1.eth[3].mac 	txPk:sum(packetBytes) 	0
attr interpolationmode  none
attr source  txPk
attr title  "packets transmitted, sum(packetBytes)"
scalar Container_A.rackSwitch_1.eth[3].mac 	passedUpPk:count 	0
attr interpolationmode  none
attr source  packetSentToUpper
attr title  "packets passed to higher layer, count"
scalar Container_A.rackSwitch_1.eth[3].mac 	passedUpPk:sum(packetBytes) 	0
attr interpolationmode  none
attr source  packetSentToUpper
attr title  "packets passed to higher layer, sum(packetBytes)"
scalar Container_A.ns_0_NodeStorage_C.networkLayer.arp 	failedARPResolution:count 	0
attr title  "ARP failed resolutions, count"
scalar Container_A.ns_0_NodeStorage_C.networkLayer.arp 	completedARPResolution:count 	0
attr title  "ARP completed resolutions, count"
scalar Container_A.ns_0_NodeStorage_C.networkLayer.arp 	initiatedARPResolution:count 	0
attr title  "ARP initiated resolutions, count"
scalar Container_A.ns_0_NodeStorage_C.networkLayer.arp 	sentReply:count 	0
attr title  "ARP replies sent, count"
scalar Container_A.ns_0_NodeStorage_C.networkLayer.arp 	sentReq:count 	0
attr title  "ARP request sent, count"
scalar Container_A.ns_0_NodeStorage_C.lo0.lo 	droppedPkBitError:count 	0
attr interpolationmode  none
attr source  dropPkBitError
attr title  "packets dropped/bit error, count"
scalar Container_A.ns_0_NodeStorage_C.lo0.lo 	droppedPkBitError:sum(packetBytes) 	0
attr interpolationmode  none
attr source  dropPkBitError
attr title  "packets dropped/bit error, sum(packetBytes)"
scalar Container_A.ns_0_NodeStorage_C.lo0.lo 	rcvdPkFromHL:count 	0
attr interpolationmode  none
attr source  packetReceivedFromUpper
attr title  "packets received from higher layer, count"
scalar Container_A.ns_0_NodeStorage_C.lo0.lo 	rcvdPkFromHL:sum(packetBytes) 	0
attr interpolationmode  none
attr source  packetReceivedFromUpper
attr title  "packets received from higher layer, sum(packetBytes)"
scalar Container_A.ns_0_NodeStorage_C.lo0.lo 	passedUpPk:count 	0
attr interpolationmode  none
attr source  packetSentToUpper
attr title  "packets passed to higher layer, count"
scalar Container_A.ns_0_NodeStorage_C.lo0.lo 	passedUpPk:sum(packetBytes) 	0
attr interpolationmode  none
attr source  packetSentToUpper
attr title  "packets passed to higher layer, sum(packetBytes)"
scalar Container_A.ns_0_NodeStorage_C.eth[0].mac 	"simulated time" 	3.000016
scalar Container_A.ns_0_NodeStorage_C.eth[0].mac 	full-duplex 	1
scalar Container_A.ns_0_NodeStorage_C.eth[0].mac 	"frames/sec sent" 	0
scalar Container_A.ns_0_NodeStorage_C.eth[0].mac 	"frames/sec rcvd" 	0
scalar Container_A.ns_0_NodeStorage_C.eth[0].mac 	"bits/sec sent" 	0
scalar Container_A.ns_0_NodeStorage_C.eth[0].mac 	"bits/sec rcvd" 	0
scalar Container_A.ns_0_NodeStorage_C.eth[0].mac 	"rx channel idle (%)" 	100
scalar Container_A.ns_0_NodeStorage_C.eth[0].mac 	"rx channel utilization (%)" 	0
scalar Container_A.ns_0_NodeStorage_C.eth[0].mac 	droppedPkNotForUs:count 	0
attr interpolationmode  none
attr source  dropPkNotForUs
attr title  "packets dropped/not for us, count"
scalar Container_A.ns_0_NodeStorage_C.eth[0].mac 	droppedPkNotForUs:sum(packetBytes) 	0
attr interpolationmode  none
attr source  dropPkNotForUs
attr title  "packets dropped/not for us, sum(packetBytes)"
scalar Container_A.ns_0_NodeStorage_C.eth[0].mac 	droppedPkIfaceDown:count 	0
attr interpolationmode  none
attr source  dropPkIfaceDown
attr title  "packets dropped/interface down, count"
scalar Container_A.ns_0_NodeStorage_C.eth[0].mac 	droppedPkIfaceDown:sum(packetBytes) 	0
attr interpolationmode  none
attr source  dropPkIfaceDown
attr title  "packets dropped/interface down, sum(packetBytes)"
scalar Container_A.ns_0_NodeStorage_C.eth[0].mac 	droppedPkBitError:count 	0
attr interpolationmode  none
attr source  dropPkBitError
attr title  "packets dropped/bit error, count"
scalar Container_A.ns_0_NodeStorage_C.eth[0].mac 	droppedPkBitError:sum(packetBytes) 	0
attr interpolationmode  none
attr source  dropPkBitError
attr title  "packets dropped/bit error, sum(packetBytes)"
scalar Container_A.ns_0_NodeStorage_C.eth[0].mac 	rxPkFromHL:count 	0
attr interpolationmode  none
attr source  rxPkFromHL
attr title  "packet bytes from higher layer, count"
scalar Container_A.ns_0_NodeStorage_C.eth[0].mac 	rxPkFromHL:sum(packetBytes) 	0
attr interpolationmode  none
attr source  rxPkFromHL
attr title  "packet bytes from higher layer, sum(packetBytes)"
scalar Container_A.ns_0_NodeStorage_C.eth[0].mac 	rxPausePkUnits:count 	0
attr interpolationmode  none
attr title  "pause units received, count"
scalar Container_A.ns_0_NodeStorage_C.eth[0].mac 	rxPausePkUnits:sum 	0
attr interpolationmode  none
attr title  "pause units received, sum"
scalar Container_A.ns_0_NodeStorage_C.eth[0].mac 	txPausePkUnits:count 	0
attr interpolationmode  none
attr title  "pause units sent, count"
scalar Container_A.ns_0_NodeStorage_C.eth[0].mac 	txPausePkUnits:sum 	0
attr interpolationmode  none
attr title  "pause units sent, sum"
scalar Container_A.ns_0_NodeStorage_C.eth[0].mac 	rxPkOk:count 	0
attr interpolationmode  none
attr source  rxPkOk
attr title  "packets received OK, count"
scalar Container_A.ns_0_NodeStorage_C.eth[0].mac 	rxPkOk:sum(packetBytes) 	0
attr interpolationmode  none
attr source  rxPkOk
attr title  "packets received OK, sum(packetBytes)"
scalar Container_A.ns_0_NodeStorage_C.eth[0].mac 	txPk:count 	0
attr interpolationmode  none
attr source  txPk
attr title  "packets transmitted, count"
scalar Container_A.ns_0_NodeStorage_C.eth[0].mac 	txPk:sum(packetBytes) 	0
attr interpolationmode  none
attr source  txPk
attr title  "packets transmitted, sum(packetBytes)"
scalar Container_A.ns_0_NodeStorage_C.eth[0].mac 	passedUpPk:count 	0
attr interpolationmode  none
attr source  packetSentToUpper
attr title  "packets passed to higher layer, count"
scalar Container_A.ns_0_NodeStorage_C.eth[0].mac 	passedUpPk:sum(packetBytes) 	0
attr interpolationmode  none
attr source  packetSentToUpper
attr title  "packets passed to higher layer, sum(packetBytes)"
scalar Container_A.ns_0_NodeStorage_C.eth[0].encap 	pauseSent:count 	0
attr title  "pause sent, count"
scalar Container_A.ns_0_NodeStorage_C.eth[0].encap 	pauseSent:sum 	0
attr title  "pause sent, sum"
scalar Container_A.ns_0_NodeStorage_C.eth[0].encap 	decapPk:count 	0
attr interpolationmode  none
attr source  decapPk
attr title  "packets decapsulated, count"
scalar Container_A.ns_0_NodeStorage_C.eth[0].encap 	decapPk:sum(packetBytes) 	0
attr interpolationmode  none
attr source  decapPk
attr title  "packets decapsulated, sum(packetBytes)"
scalar Container_A.ns_0_NodeStorage_C.eth[0].encap 	encapPk:count 	0
attr interpolationmode  none
attr source  encapPk
attr title  "packets encapsulated, count"
scalar Container_A.ns_0_NodeStorage_C.eth[0].encap 	encapPk:sum(packetBytes) 	0
attr interpolationmode  none
attr source  encapPk
attr title  "packets encapsulated, sum(packetBytes)"
scalar Container_A.rc_0_Rack_A_4[0].networkLayer.arp 	failedARPResolution:count 	0
attr title  "ARP failed resolutions, count"
scalar Container_A.rc_0_Rack_A_4[0].networkLayer.arp 	completedARPResolution:count 	0
attr title  "ARP completed resolutions, count"
scalar Container_A.rc_0_Rack_A_4[0].networkLayer.arp 	initiatedARPResolution:count 	0
attr title  "ARP initiated resolutions, count"
scalar Container_A.rc_0_Rack_A_4[0].networkLayer.arp 	sentReply:count 	0
attr title  "ARP replies sent, count"
scalar Container_A.rc_0_Rack_A_4[0].networkLayer.arp 	sentReq:count 	0
attr title  "ARP request sent, count"
scalar Container_A.rc_0_Rack_A_4[0].lo0.lo 	droppedPkBitError:count 	0
attr interpolationmode  none
attr source  dropPkBitError
attr title  "packets dropped/bit error, count"
scalar Container_A.rc_0_Rack_A_4[0].lo0.lo 	droppedPkBitError:sum(packetBytes) 	0
attr interpolationmode  none
attr source  dropPkBitError
attr title  "packets dropped/bit error, sum(packetBytes)"
scalar Container_A.rc_0_Rack_A_4[0].lo0.lo 	rcvdPkFromHL:count 	0
attr interpolationmode  none
attr source  packetReceivedFromUpper
attr title  "packets received from higher layer, count"
scalar Container_A.rc_0_Rack_A_4[0].lo0.lo 	rcvdPkFromHL:sum(packetBytes) 	0
attr interpolationmode  none
attr source  packetReceivedFromUpper
attr title  "packets received from higher layer, sum(packetBytes)"
scalar Container_A.rc_0_Rack_A_4[0].lo0.lo 	passedUpPk:count 	0
attr interpolationmode  none
attr source  packetSentToUpper
attr title  "packets passed to higher layer, count"
scalar Container_A.rc_0_Rack_A_4[0].lo0.lo 	passedUpPk:sum(packetBytes) 	0
attr interpolationmode  none
attr source  packetSentToUpper
attr title  "packets passed to higher layer, sum(packetBytes)"
scalar Container_A.rc_0_Rack_A_4[0].eth[0].mac 	"simulated time" 	3.000016
scalar Container_A.rc_0_Rack_A_4[0].eth[0].mac 	full-duplex 	1
scalar Container_A.rc_0_Rack_A_4[0].eth[0].mac 	"frames/sec sent" 	0
scalar Container_A.rc_0_Rack_A_4[0].eth[0].mac 	"frames/sec rcvd" 	0
scalar Container_A.rc_0_Rack_A_4[0].eth[0].mac 	"bits/sec sent" 	0
scalar Container_A.rc_0_Rack_A_4[0].eth[0].mac 	"bits/sec rcvd" 	0
scalar Container_A.rc_0_Rack_A_4[0].eth[0].mac 	"rx channel idle (%)" 	100
scalar Container_A.rc_0_Rack_A_4[0].eth[0].mac 	"rx channel utilization (%)" 	0
scalar Container_A.rc_0_Rack_A_4[0].eth[0].mac 	droppedPkNotForUs:count 	0
attr interpolationmode  none
attr source  dropPkNotForUs
attr title  "packets dropped/not for us, count"
scalar Container_A.rc_0_Rack_A_4[0].eth[0].mac 	droppedPkNotForUs:sum(packetBytes) 	0
attr interpolationmode  none
attr source  dropPkNotForUs
attr title  "packets dropped/not for us, sum(packetBytes)"
scalar Container_A.rc_0_Rack_A_4[0].eth[0].mac 	droppedPkIfaceDown:count 	0
attr interpolationmode  none
attr source  dropPkIfaceDown
attr title  "packets dropped/interface down, count"
scalar Container_A.rc_0_Rack_A_4[0].eth[0].mac 	droppedPkIfaceDown:sum(packetBytes) 	0
attr interpolationmode  none
attr source  dropPkIfaceDown
attr title  "packets dropped/interface down, sum(packetBytes)"
scalar Container_A.rc_0_Rack_A_4[0].eth[0].mac 	droppedPkBitError:count 	0
attr interpolationmode  none
attr source  dropPkBitError
attr title  "packets dropped/bit error, count"
scalar Container_A.rc_0_Rack_A_4[0].eth[0].mac 	droppedPkBitError:sum(packetBytes) 	0
attr interpolationmode  none
attr source  dropPkBitError
attr title  "packets dropped/bit error, sum(packetBytes)"
scalar Container_A.rc_0_Rack_A_4[0].eth[0].mac 	rxPkFromHL:count 	0
attr interpolationmode  none
attr source  rxPkFromHL
attr title  "packet bytes from higher layer, count"
scalar Container_A.rc_0_Rack_A_4[0].eth[0].mac 	rxPkFromHL:sum(packetBytes) 	0
attr interpolationmode  none
attr source  rxPkFromHL
attr title  "packet bytes from higher layer, sum(packetBytes)"
scalar Container_A.rc_0_Rack_A_4[0].eth[0].mac 	rxPausePkUnits:count 	0
attr interpolationmode  none
attr title  "pause units received, count"
scalar Container_A.rc_0_Rack_A_4[0].eth[0].mac 	rxPausePkUnits:sum 	0
attr interpolationmode  none
attr title  "pause units received, sum"
scalar Container_A.rc_0_Rack_A_4[0].eth[0].mac 	txPausePkUnits:count 	0
attr interpolationmode  none
attr title  "pause units sent, count"
scalar Container_A.rc_0_Rack_A_4[0].eth[0].mac 	txPausePkUnits:sum 	0
attr interpolationmode  none
attr title  "pause units sent, sum"
scalar Container_A.rc_0_Rack_A_4[0].eth[0].mac 	rxPkOk:count 	0
attr interpolationmode  none
attr source  rxPkOk
attr title  "packets received OK, count"
scalar Container_A.rc_0_Rack_A_4[0].eth[0].mac 	rxPkOk:sum(packetBytes) 	0
attr interpolationmode  none
attr source  rxPkOk
attr title  "packets received OK, sum(packetBytes)"
scalar Container_A.rc_0_Rack_A_4[0].eth[0].mac 	txPk:count 	0
attr interpolationmode  none
attr source  txPk
attr title  "packets transmitted, count"
scalar Container_A.rc_0_Rack_A_4[0].eth[0].mac 	txPk:sum(packetBytes) 	0
attr interpolationmode  none
attr source  txPk
attr title  "packets transmitted, sum(packetBytes)"
scalar Container_A.rc_0_Rack_A_4[0].eth[0].mac 	passedUpPk:count 	0
attr interpolationmode  none
attr source  packetSentToUpper
attr title  "packets passed to higher layer, count"
scalar Container_A.rc_0_Rack_A_4[0].eth[0].mac 	passedUpPk:sum(packetBytes) 	0
attr interpolationmode  none
attr source  packetSentToUpper
attr title  "packets passed to higher layer, sum(packetBytes)"
scalar Container_A.rc_0_Rack_A_4[0].eth[0].encap 	pauseSent:count 	0
attr title  "pause sent, count"
scalar Container_A.rc_0_Rack_A_4[0].eth[0].encap 	pauseSent:sum 	0
attr title  "pause sent, sum"
scalar Container_A.rc_0_Rack_A_4[0].eth[0].encap 	decapPk:count 	0
attr interpolationmode  none
attr source  decapPk
attr title  "packets decapsulated, count"
scalar Container_A.rc_0_Rack_A_4[0].eth[0].encap 	decapPk:sum(packetBytes) 	0
attr interpolationmode  none
attr source  decapPk
attr title  "packets decapsulated, sum(packetBytes)"
scalar Container_A.rc_0_Rack_A_4[0].eth[0].encap 	encapPk:count 	0
attr interpolationmode  none
attr source  encapPk
attr title  "packets encapsulated, count"
scalar Container_A.rc_0_Rack_A_4[0].eth[0].encap 	encapPk:sum(packetBytes) 	0
attr interpolationmode  none
attr source  encapPk
attr title  "packets encapsulated, sum(packetBytes)"
scalar Container_A.rc_0_Rack_A_4[1].networkLayer.arp 	failedARPResolution:count 	0
attr title  "ARP failed resolutions, count"
scalar Container_A.rc_0_Rack_A_4[1].networkLayer.arp 	completedARPResolution:count 	0
attr title  "ARP completed resolutions, count"
scalar Container_A.rc_0_Rack_A_4[1].networkLayer.arp 	initiatedARPResolution:count 	0
attr title  "ARP initiated resolutions, count"
scalar Container_A.rc_0_Rack_A_4[1].networkLayer.arp 	sentReply:count 	0
attr title  "ARP replies sent, count"
scalar Container_A.rc_0_Rack_A_4[1].networkLayer.arp 	sentReq:count 	0
attr title  "ARP request sent, count"
scalar Container_A.rc_0_Rack_A_4[1].lo0.lo 	droppedPkBitError:count 	0
attr interpolationmode  none
attr source  dropPkBitError
attr title  "packets dropped/bit error, count"
scalar Container_A.rc_0_Rack_A_4[1].lo0.lo 	droppedPkBitError:sum(packetBytes) 	0
attr interpolationmode  none
attr source  dropPkBitError
attr title  "packets dropped/bit error, sum(packetBytes)"
scalar Container_A.rc_0_Rack_A_4[1].lo0.lo 	rcvdPkFromHL:count 	0
attr interpolationmode  none
attr source  packetReceivedFromUpper
attr title  "packets received from higher layer, count"
scalar Container_A.rc_0_Rack_A_4[1].lo0.lo 	rcvdPkFromHL:sum(packetBytes) 	0
attr interpolationmode  none
attr source  packetReceivedFromUpper
attr title  "packets received from higher layer, sum(packetBytes)"
scalar Container_A.rc_0_Rack_A_4[1].lo0.lo 	passedUpPk:count 	0
attr interpolationmode  none
attr source  packetSentToUpper
attr title  "packets passed to higher layer, count"
scalar Container_A.rc_0_Rack_A_4[1].lo0.lo 	passedUpPk:sum(packetBytes) 	0
attr interpolationmode  none
attr source  packetSentToUpper
attr title  "packets passed to higher layer, sum(packetBytes)"
scalar Container_A.rc_0_Rack_A_4[1].eth[0].mac 	"simulated time" 	3.000016
scalar Container_A.rc_0_Rack_A_4[1].eth[0].mac 	full-duplex 	1
scalar Container_A.rc_0_Rack_A_4[1].eth[0].mac 	"frames/sec sent" 	0
scalar Container_A.rc_0_Rack_A_4[1].eth[0].mac 	"frames/sec rcvd" 	0
scalar Container_A.rc_0_Rack_A_4[1].eth[0].mac 	"bits/sec sent" 	0
scalar Container_A.rc_0_Rack_A_4[1].eth[0].mac 	"bits/sec rcvd" 	0
scalar Container_A.rc_0_Rack_A_4[1].eth[0].mac 	"rx channel idle (%)" 	100
scalar Container_A.rc_0_Rack_A_4[1].eth[0].mac 	"rx channel utilization (%)" 	0
scalar Container_A.rc_0_Rack_A_4[1].eth[0].mac 	droppedPkNotForUs:count 	0
attr interpolationmode  none
attr source  dropPkNotForUs
attr title  "packets dropped/not for us, count"
scalar Container_A.rc_0_Rack_A_4[1].eth[0].mac 	droppedPkNotForUs:sum(packetBytes) 	0
attr interpolationmode  none
attr source  dropPkNotForUs
attr title  "packets dropped/not for us, sum(packetBytes)"
scalar Container_A.rc_0_Rack_A_4[1].eth[0].mac 	droppedPkIfaceDown:count 	0
attr interpolationmode  none
attr source  dropPkIfaceDown
attr title  "packets dropped/interface down, count"
scalar Container_A.rc_0_Rack_A_4[1].eth[0].mac 	droppedPkIfaceDown:sum(packetBytes) 	0
attr interpolationmode  none
attr source  dropPkIfaceDown
attr title  "packets dropped/interface down, sum(packetBytes)"
scalar Container_A.rc_0_Rack_A_4[1].eth[0].mac 	droppedPkBitError:count 	0
attr interpolationmode  none
attr source  dropPkBitError
attr title  "packets dropped/bit error, count"
scalar Container_A.rc_0_Rack_A_4[1].eth[0].mac 	droppedPkBitError:sum(packetBytes) 	0
attr interpolationmode  none
attr source  dropPkBitError
attr title  "packets dropped/bit error, sum(packetBytes)"
scalar Container_A.rc_0_Rack_A_4[1].eth[0].mac 	rxPkFromHL:count 	0
attr interpolationmode  none
attr source  rxPkFromHL
attr title  "packet bytes from higher layer, count"
scalar Container_A.rc_0_Rack_A_4[1].eth[0].mac 	rxPkFromHL:sum(packetBytes) 	0
attr interpolationmode  none
attr source  rxPkFromHL
attr title  "packet bytes from higher layer, sum(packetBytes)"
scalar Container_A.rc_0_Rack_A_4[1].eth[0].mac 	rxPausePkUnits:count 	0
attr interpolationmode  none
attr title  "pause units received, count"
scalar Container_A.rc_0_Rack_A_4[1].eth[0].mac 	rxPausePkUnits:sum 	0
attr interpolationmode  none
attr title  "pause units received, sum"
scalar Container_A.rc_0_Rack_A_4[1].eth[0].mac 	txPausePkUnits:count 	0
attr interpolationmode  none
attr title  "pause units sent, count"
scalar Container_A.rc_0_Rack_A_4[1].eth[0].mac 	txPausePkUnits:sum 	0
attr interpolationmode  none
attr title  "pause units sent, sum"
scalar Container_A.rc_0_Rack_A_4[1].eth[0].mac 	rxPkOk:count 	0
attr interpolationmode  none
attr source  rxPkOk
attr title  "packets received OK, count"
scalar Container_A.rc_0_Rack_A_4[1].eth[0].mac 	rxPkOk:sum(packetBytes) 	0
attr interpolationmode  none
attr source  rxPkOk
attr title  "packets received OK, sum(packetBytes)"
scalar Container_A.rc_0_Rack_A_4[1].eth[0].mac 	txPk:count 	0
attr interpolationmode  none
attr source  txPk
attr title  "packets transmitted, count"
scalar Container_A.rc_0_Rack_A_4[1].eth[0].mac 	txPk:sum(packetBytes) 	0
attr interpolationmode  none
attr source  txPk
attr title  "packets transmitted, sum(packetBytes)"
scalar Container_A.rc_0_Rack_A_4[1].eth[0].mac 	passedUpPk:count 	0
attr interpolationmode  none
attr source  packetSentToUpper
attr title  "packets passed to higher layer, count"
scalar Container_A.rc_0_Rack_A_4[1].eth[0].mac 	passedUpPk:sum(packetBytes) 	0
attr interpolationmode  none
attr source  packetSentToUpper
attr title  "packets passed to higher layer, sum(packetBytes)"
scalar Container_A.rc_0_Rack_A_4[1].eth[0].encap 	pauseSent:count 	0
attr title  "pause sent, count"
scalar Container_A.rc_0_Rack_A_4[1].eth[0].encap 	pauseSent:sum 	0
attr title  "pause sent, sum"
scalar Container_A.rc_0_Rack_A_4[1].eth[0].encap 	decapPk:count 	0
attr interpolationmode  none
attr source  decapPk
attr title  "packets decapsulated, count"
scalar Container_A.rc_0_Rack_A_4[1].eth[0].encap 	decapPk:sum(packetBytes) 	0
attr interpolationmode  none
attr source  decapPk
attr title  "packets decapsulated, sum(packetBytes)"
scalar Container_A.rc_0_Rack_A_4[1].eth[0].encap 	encapPk:count 	0
attr interpolationmode  none
attr source  encapPk
attr title  "packets encapsulated, count"
scalar Container_A.rc_0_Rack_A_4[1].eth[0].encap 	encapPk:sum(packetBytes) 	0
attr interpolationmode  none
attr source  encapPk
attr title  "packets encapsulated, sum(packetBytes)"
scalar Container_A.rc_0_Rack_A_4[2].networkLayer.arp 	failedARPResolution:count 	0
attr title  "ARP failed resolutions, count"
scalar Container_A.rc_0_Rack_A_4[2].networkLayer.arp 	completedARPResolution:count 	0
attr title  "ARP completed resolutions, count"
scalar Container_A.rc_0_Rack_A_4[2].networkLayer.arp 	initiatedARPResolution:count 	0
attr title  "ARP initiated resolutions, count"
scalar Container_A.rc_0_Rack_A_4[2].networkLayer.arp 	sentReply:count 	0
attr title  "ARP replies sent, count"
scalar Container_A.rc_0_Rack_A_4[2].networkLayer.arp 	sentReq:count 	0
attr title  "ARP request sent, count"
scalar Container_A.rc_0_Rack_A_4[2].lo0.lo 	droppedPkBitError:count 	0
attr interpolationmode  none
attr source  dropPkBitError
attr title  "packets dropped/bit error, count"
scalar Container_A.rc_0_Rack_A_4[2].lo0.lo 	droppedPkBitError:sum(packetBytes) 	0
attr interpolationmode  none
attr source  dropPkBitError
attr title  "packets dropped/bit error, sum(packetBytes)"
scalar Container_A.rc_0_Rack_A_4[2].lo0.lo 	rcvdPkFromHL:count 	0
attr interpolationmode  none
attr source  packetReceivedFromUpper
attr title  "packets received from higher layer, count"
scalar Container_A.rc_0_Rack_A_4[2].lo0.lo 	rcvdPkFromHL:sum(packetBytes) 	0
attr interpolationmode  none
attr source  packetReceivedFromUpper
attr title  "packets received from higher layer, sum(packetBytes)"
scalar Container_A.rc_0_Rack_A_4[2].lo0.lo 	passedUpPk:count 	0
attr interpolationmode  none
attr source  packetSentToUpper
attr title  "packets passed to higher layer, count"
scalar Container_A.rc_0_Rack_A_4[2].lo0.lo 	passedUpPk:sum(packetBytes) 	0
attr interpolationmode  none
attr source  packetSentToUpper
attr title  "packets passed to higher layer, sum(packetBytes)"
scalar Container_A.rc_0_Rack_A_4[2].eth[0].mac 	"simulated time" 	3.000016
scalar Container_A.rc_0_Rack_A_4[2].eth[0].mac 	full-duplex 	1
scalar Container_A.rc_0_Rack_A_4[2].eth[0].mac 	"frames/sec sent" 	0
scalar Container_A.rc_0_Rack_A_4[2].eth[0].mac 	"frames/sec rcvd" 	0
scalar Container_A.rc_0_Rack_A_4[2].eth[0].mac 	"bits/sec sent" 	0
scalar Container_A.rc_0_Rack_A_4[2].eth[0].mac 	"bits/sec rcvd" 	0
scalar Container_A.rc_0_Rack_A_4[2].eth[0].mac 	"rx channel idle (%)" 	100
scalar Container_A.rc_0_Rack_A_4[2].eth[0].mac 	"rx channel utilization (%)" 	0
scalar Container_A.rc_0_Rack_A_4[2].eth[0].mac 	droppedPkNotForUs:count 	0
attr interpolationmode  none
attr source  dropPkNotForUs
attr title  "packets dropped/not for us, count"
scalar Container_A.rc_0_Rack_A_4[2].eth[0].mac 	droppedPkNotForUs:sum(packetBytes) 	0
attr interpolationmode  none
attr source  dropPkNotForUs
attr title  "packets dropped/not for us, sum(packetBytes)"
scalar Container_A.rc_0_Rack_A_4[2].eth[0].mac 	droppedPkIfaceDown:count 	0
attr interpolationmode  none
attr source  dropPkIfaceDown
attr title  "packets dropped/interface down, count"
scalar Container_A.rc_0_Rack_A_4[2].eth[0].mac 	droppedPkIfaceDown:sum(packetBytes) 	0
attr interpolationmode  none
attr source  dropPkIfaceDown
attr title  "packets dropped/interface down, sum(packetBytes)"
scalar Container_A.rc_0_Rack_A_4[2].eth[0].mac 	droppedPkBitError:count 	0
attr interpolationmode  none
attr source  dropPkBitError
attr title  "packets dropped/bit error, count"
scalar Container_A.rc_0_Rack_A_4[2].eth[0].mac 	droppedPkBitError:sum(packetBytes) 	0
attr interpolationmode  none
attr source  dropPkBitError
attr title  "packets dropped/bit error, sum(packetBytes)"
scalar Container_A.rc_0_Rack_A_4[2].eth[0].mac 	rxPkFromHL:count 	0
attr interpolationmode  none
attr source  rxPkFromHL
attr title  "packet bytes from higher layer, count"
scalar Container_A.rc_0_Rack_A_4[2].eth[0].mac 	rxPkFromHL:sum(packetBytes) 	0
attr interpolationmode  none
attr source  rxPkFromHL
attr title  "packet bytes from higher layer, sum(packetBytes)"
scalar Container_A.rc_0_Rack_A_4[2].eth[0].mac 	rxPausePkUnits:count 	0
attr interpolationmode  none
attr title  "pause units received, count"
scalar Container_A.rc_0_Rack_A_4[2].eth[0].mac 	rxPausePkUnits:sum 	0
attr interpolationmode  none
attr title  "pause units received, sum"
scalar Container_A.rc_0_Rack_A_4[2].eth[0].mac 	txPausePkUnits:count 	0
attr interpolationmode  none
attr title  "pause units sent, count"
scalar Container_A.rc_0_Rack_A_4[2].eth[0].mac 	txPausePkUnits:sum 	0
attr interpolationmode  none
attr title  "pause units sent, sum"
scalar Container_A.rc_0_Rack_A_4[2].eth[0].mac 	rxPkOk:count 	0
attr interpolationmode  none
attr source  rxPkOk
attr title  "packets received OK, count"
scalar Container_A.rc_0_Rack_A_4[2].eth[0].mac 	rxPkOk:sum(packetBytes) 	0
attr interpolationmode  none
attr source  rxPkOk
attr title  "packets received OK, sum(packetBytes)"
scalar Container_A.rc_0_Rack_A_4[2].eth[0].mac 	txPk:count 	0
attr interpolationmode  none
attr source  txPk
attr title  "packets transmitted, count"
scalar Container_A.rc_0_Rack_A_4[2].eth[0].mac 	txPk:sum(packetBytes) 	0
attr interpolationmode  none
attr source  txPk
attr title  "packets transmitted, sum(packetBytes)"
scalar Container_A.rc_0_Rack_A_4[2].eth[0].mac 	passedUpPk:count 	0
attr interpolationmode  none
attr source  packetSentToUpper
attr title  "packets passed to higher layer, count"
scalar Container_A.rc_0_Rack_A_4[2].eth[0].mac 	passedUpPk:sum(packetBytes) 	0
attr interpolationmode  none
attr source  packetSentToUpper
attr title  "packets passed to higher layer, sum(packetBytes)"
scalar Container_A.rc_0_Rack_A_4[2].eth[0].encap 	pauseSent:count 	0
attr title  "pause sent, count"
scalar Container_A.rc_0_Rack_A_4[2].eth[0].encap 	pauseSent:sum 	0
attr title  "pause sent, sum"
scalar Container_A.rc_0_Rack_A_4[2].eth[0].encap 	decapPk:count 	0
attr interpolationmode  none
attr source  decapPk
attr title  "packets decapsulated, count"
scalar Container_A.rc_0_Rack_A_4[2].eth[0].encap 	decapPk:sum(packetBytes) 	0
attr interpolationmode  none
attr source  decapPk
attr title  "packets decapsulated, sum(packetBytes)"
scalar Container_A.rc_0_Rack_A_4[2].eth[0].encap 	encapPk:count 	0
attr interpolationmode  none
attr source  encapPk
attr title  "packets encapsulated, count"
scalar Container_A.rc_0_Rack_A_4[2].eth[0].encap 	encapPk:sum(packetBytes) 	0
attr interpolationmode  none
attr source  encapPk
attr title  "packets encapsulated, sum(packetBytes)"
scalar Container_A.rc_0_Rack_B_4[0].networkLayer.arp 	failedARPResolution:count 	0
attr title  "ARP failed resolutions, count"
scalar Container_A.rc_0_Rack_B_4[0].networkLayer.arp 	completedARPResolution:count 	0
attr title  "ARP completed resolutions, count"
scalar Container_A.rc_0_Rack_B_4[0].networkLayer.arp 	initiatedARPResolution:count 	0
attr title  "ARP initiated resolutions, count"
scalar Container_A.rc_0_Rack_B_4[0].networkLayer.arp 	sentReply:count 	0
attr title  "ARP replies sent, count"
scalar Container_A.rc_0_Rack_B_4[0].networkLayer.arp 	sentReq:count 	0
attr title  "ARP request sent, count"
scalar Container_A.rc_0_Rack_B_4[0].lo0.lo 	droppedPkBitError:count 	0
attr interpolationmode  none
attr source  dropPkBitError
attr title  "packets dropped/bit error, count"
scalar Container_A.rc_0_Rack_B_4[0].lo0.lo 	droppedPkBitError:sum(packetBytes) 	0
attr interpolationmode  none
attr source  dropPkBitError
attr title  "packets dropped/bit error, sum(packetBytes)"
scalar Container_A.rc_0_Rack_B_4[0].lo0.lo 	rcvdPkFromHL:count 	0
attr interpolationmode  none
attr source  packetReceivedFromUpper
attr title  "packets received from higher layer, count"
scalar Container_A.rc_0_Rack_B_4[0].lo0.lo 	rcvdPkFromHL:sum(packetBytes) 	0
attr interpolationmode  none
attr source  packetReceivedFromUpper
attr title  "packets received from higher layer, sum(packetBytes)"
scalar Container_A.rc_0_Rack_B_4[0].lo0.lo 	passedUpPk:count 	0
attr interpolationmode  none
attr source  packetSentToUpper
attr title  "packets passed to higher layer, count"
scalar Container_A.rc_0_Rack_B_4[0].lo0.lo 	passedUpPk:sum(packetBytes) 	0
attr interpolationmode  none
attr source  packetSentToUpper
attr title  "packets passed to higher layer, sum(packetBytes)"
scalar Container_A.rc_0_Rack_B_4[0].eth[0].mac 	"simulated time" 	3.000016
scalar Container_A.rc_0_Rack_B_4[0].eth[0].mac 	full-duplex 	1
scalar Container_A.rc_0_Rack_B_4[0].eth[0].mac 	"frames/sec sent" 	0
scalar Container_A.rc_0_Rack_B_4[0].eth[0].mac 	"frames/sec rcvd" 	0
scalar Container_A.rc_0_Rack_B_4[0].eth[0].mac 	"bits/sec sent" 	0
scalar Container_A.rc_0_Rack_B_4[0].eth[0].mac 	"bits/sec rcvd" 	0
scalar Container_A.rc_0_Rack_B_4[0].eth[0].mac 	"rx channel idle (%)" 	100
scalar Container_A.rc_0_Rack_B_4[0].eth[0].mac 	"rx channel utilization (%)" 	0
scalar Container_A.rc_0_Rack_B_4[0].eth[0].mac 	droppedPkNotForUs:count 	0
attr interpolationmode  none
attr source  dropPkNotForUs
attr title  "packets dropped/not for us, count"
scalar Container_A.rc_0_Rack_B_4[0].eth[0].mac 	droppedPkNotForUs:sum(packetBytes) 	0
attr interpolationmode  none
attr source  dropPkNotForUs
attr title  "packets dropped/not for us, sum(packetBytes)"
scalar Container_A.rc_0_Rack_B_4[0].eth[0].mac 	droppedPkIfaceDown:count 	0
attr interpolationmode  none
attr source  dropPkIfaceDown
attr title  "packets dropped/interface down, count"
scalar Container_A.rc_0_Rack_B_4[0].eth[0].mac 	droppedPkIfaceDown:sum(packetBytes) 	0
attr interpolationmode  none
attr source  dropPkIfaceDown
attr title  "packets dropped/interface down, sum(packetBytes)"
scalar Container_A.rc_0_Rack_B_4[0].eth[0].mac 	droppedPkBitError:count 	0
attr interpolationmode  none
attr source  dropPkBitError
attr title  "packets dropped/bit error, count"
scalar Container_A.rc_0_Rack_B_4[0].eth[0].mac 	droppedPkBitError:sum(packetBytes) 	0
attr interpolationmode  none
attr source  dropPkBitError
attr title  "packets dropped/bit error, sum(packetBytes)"
scalar Container_A.rc_0_Rack_B_4[0].eth[0].mac 	rxPkFromHL:count 	0
attr interpolationmode  none
attr source  rxPkFromHL
attr title  "packet bytes from higher layer, count"
scalar Container_A.rc_0_Rack_B_4[0].eth[0].mac 	rxPkFromHL:sum(packetBytes) 	0
attr interpolationmode  none
attr source  rxPkFromHL
attr title  "packet bytes from higher layer, sum(packetBytes)"
scalar Container_A.rc_0_Rack_B_4[0].eth[0].mac 	rxPausePkUnits:count 	0
attr interpolationmode  none
attr title  "pause units received, count"
scalar Container_A.rc_0_Rack_B_4[0].eth[0].mac 	rxPausePkUnits:sum 	0
attr interpolationmode  none
attr title  "pause units received, sum"
scalar Container_A.rc_0_Rack_B_4[0].eth[0].mac 	txPausePkUnits:count 	0
attr interpolationmode  none
attr title  "pause units sent, count"
scalar Container_A.rc_0_Rack_B_4[0].eth[0].mac 	txPausePkUnits:sum 	0
attr interpolationmode  none
attr title  "pause units sent, sum"
scalar Container_A.rc_0_Rack_B_4[0].eth[0].mac 	rxPkOk:count 	0
attr interpolationmode  none
attr source  rxPkOk
attr title  "packets received OK, count"
scalar Container_A.rc_0_Rack_B_4[0].eth[0].mac 	rxPkOk:sum(packetBytes) 	0
attr interpolationmode  none
attr source  rxPkOk
attr title  "packets received OK, sum(packetBytes)"
scalar Container_A.rc_0_Rack_B_4[0].eth[0].mac 	txPk:count 	0
attr interpolationmode  none
attr source  txPk
attr title  "packets transmitted, count"
scalar Container_A.rc_0_Rack_B_4[0].eth[0].mac 	txPk:sum(packetBytes) 	0
attr interpolationmode  none
attr source  txPk
attr title  "packets transmitted, sum(packetBytes)"
scalar Container_A.rc_0_Rack_B_4[0].eth[0].mac 	passedUpPk:count 	0
attr interpolationmode  none
attr source  packetSentToUpper
attr title  "packets passed to higher layer, count"
scalar Container_A.rc_0_Rack_B_4[0].eth[0].mac 	passedUpPk:sum(packetBytes) 	0
attr interpolationmode  none
attr source  packetSentToUpper
attr title  "packets passed to higher layer, sum(packetBytes)"
scalar Container_A.rc_0_Rack_B_4[0].eth[0].encap 	pauseSent:count 	0
attr title  "pause sent, count"
scalar Container_A.rc_0_Rack_B_4[0].eth[0].encap 	pauseSent:sum 	0
attr title  "pause sent, sum"
scalar Container_A.rc_0_Rack_B_4[0].eth[0].encap 	decapPk:count 	0
attr interpolationmode  none
attr source  decapPk
attr title  "packets decapsulated, count"
scalar Container_A.rc_0_Rack_B_4[0].eth[0].encap 	decapPk:sum(packetBytes) 	0
attr interpolationmode  none
attr source  decapPk
attr title  "packets decapsulated, sum(packetBytes)"
scalar Container_A.rc_0_Rack_B_4[0].eth[0].encap 	encapPk:count 	0
attr interpolationmode  none
attr source  encapPk
attr title  "packets encapsulated, count"
scalar Container_A.rc_0_Rack_B_4[0].eth[0].encap 	encapPk:sum(packetBytes) 	0
attr interpolationmode  none
attr source  encapPk
attr title  "packets encapsulated, sum(packetBytes)"
scalar Container_A.rc_0_Rack_B_4[1].networkLayer.arp 	failedARPResolution:count 	0
attr title  "ARP failed resolutions, count"
scalar Container_A.rc_0_Rack_B_4[1].networkLayer.arp 	completedARPResolution:count 	0
attr title  "ARP completed resolutions, count"
scalar Container_A.rc_0_Rack_B_4[1].networkLayer.arp 	initiatedARPResolution:count 	0
attr title  "ARP initiated resolutions, count"
scalar Container_A.rc_0_Rack_B_4[1].networkLayer.arp 	sentReply:count 	0
attr title  "ARP replies sent, count"
scalar Container_A.rc_0_Rack_B_4[1].networkLayer.arp 	sentReq:count 	0
attr title  "ARP request sent, count"
scalar Container_A.rc_0_Rack_B_4[1].lo0.lo 	droppedPkBitError:count 	0
attr interpolationmode  none
attr source  dropPkBitError
attr title  "packets dropped/bit error, count"
scalar Container_A.rc_0_Rack_B_4[1].lo0.lo 	droppedPkBitError:sum(packetBytes) 	0
attr interpolationmode  none
attr source  dropPkBitError
attr title  "packets dropped/bit error, sum(packetBytes)"
scalar Container_A.rc_0_Rack_B_4[1].lo0.lo 	rcvdPkFromHL:count 	0
attr interpolationmode  none
attr source  packetReceivedFromUpper
attr title  "packets received from higher layer, count"
scalar Container_A.rc_0_Rack_B_4[1].lo0.lo 	rcvdPkFromHL:sum(packetBytes) 	0
attr interpolationmode  none
attr source  packetReceivedFromUpper
attr title  "packets received from higher layer, sum(packetBytes)"
scalar Container_A.rc_0_Rack_B_4[1].lo0.lo 	passedUpPk:count 	0
attr interpolationmode  none
attr source  packetSentToUpper
attr title  "packets passed to higher layer, count"
scalar Container_A.rc_0_Rack_B_4[1].lo0.lo 	passedUpPk:sum(packetBytes) 	0
attr interpolationmode  none
attr source  packetSentToUpper
attr title  "packets passed to higher layer, sum(packetBytes)"
scalar Container_A.rc_0_Rack_B_4[1].eth[0].mac 	"simulated time" 	3.000016
scalar Container_A.rc_0_Rack_B_4[1].eth[0].mac 	full-duplex 	1
scalar Container_A.rc_0_Rack_B_4[1].eth[0].mac 	"frames/sec sent" 	0
scalar Container_A.rc_0_Rack_B_4[1].eth[0].mac 	"frames/sec rcvd" 	0
scalar Container_A.rc_0_Rack_B_4[1].eth[0].mac 	"bits/sec sent" 	0
scalar Container_A.rc_0_Rack_B_4[1].eth[0].mac 	"bits/sec rcvd" 	0
scalar Container_A.rc_0_Rack_B_4[1].eth[0].mac 	"rx channel idle (%)" 	100
scalar Container_A.rc_0_Rack_B_4[1].eth[0].mac 	"rx channel utilization (%)" 	0
scalar Container_A.rc_0_Rack_B_4[1].eth[0].mac 	droppedPkNotForUs:count 	0
attr interpolationmode  none
attr source  dropPkNotForUs
attr title  "packets dropped/not for us, count"
scalar Container_A.rc_0_Rack_B_4[1].eth[0].mac 	droppedPkNotForUs:sum(packetBytes) 	0
attr interpolationmode  none
attr source  dropPkNotForUs
attr title  "packets dropped/not for us, sum(packetBytes)"
scalar Container_A.rc_0_Rack_B_4[1].eth[0].mac 	droppedPkIfaceDown:count 	0
attr interpolationmode  none
attr source  dropPkIfaceDown
attr title  "packets dropped/interface down, count"
scalar Container_A.rc_0_Rack_B_4[1].eth[0].mac 	droppedPkIfaceDown:sum(packetBytes) 	0
attr interpolationmode  none
attr source  dropPkIfaceDown
attr title  "packets dropped/interface down, sum(packetBytes)"
scalar Container_A.rc_0_Rack_B_4[1].eth[0].mac 	droppedPkBitError:count 	0
attr interpolationmode  none
attr source  dropPkBitError
attr title  "packets dropped/bit error, count"
scalar Container_A.rc_0_Rack_B_4[1].eth[0].mac 	droppedPkBitError:sum(packetBytes) 	0
attr interpolationmode  none
attr source  dropPkBitError
attr title  "packets dropped/bit error, sum(packetBytes)"
scalar Container_A.rc_0_Rack_B_4[1].eth[0].mac 	rxPkFromHL:count 	0
attr interpolationmode  none
attr source  rxPkFromHL
attr title  "packet bytes from higher layer, count"
scalar Container_A.rc_0_Rack_B_4[1].eth[0].mac 	rxPkFromHL:sum(packetBytes) 	0
attr interpolationmode  none
attr source  rxPkFromHL
attr title  "packet bytes from higher layer, sum(packetBytes)"
scalar Container_A.rc_0_Rack_B_4[1].eth[0].mac 	rxPausePkUnits:count 	0
attr interpolationmode  none
attr title  "pause units received, count"
scalar Container_A.rc_0_Rack_B_4[1].eth[0].mac 	rxPausePkUnits:sum 	0
attr interpolationmode  none
attr title  "pause units received, sum"
scalar Container_A.rc_0_Rack_B_4[1].eth[0].mac 	txPausePkUnits:count 	0
attr interpolationmode  none
attr title  "pause units sent, count"
scalar Container_A.rc_0_Rack_B_4[1].eth[0].mac 	txPausePkUnits:sum 	0
attr interpolationmode  none
attr title  "pause units sent, sum"
scalar Container_A.rc_0_Rack_B_4[1].eth[0].mac 	rxPkOk:count 	0
attr interpolationmode  none
attr source  rxPkOk
attr title  "packets received OK, count"
scalar Container_A.rc_0_Rack_B_4[1].eth[0].mac 	rxPkOk:sum(packetBytes) 	0
attr interpolationmode  none
attr source  rxPkOk
attr title  "packets received OK, sum(packetBytes)"
scalar Container_A.rc_0_Rack_B_4[1].eth[0].mac 	txPk:count 	0
attr interpolationmode  none
attr source  txPk
attr title  "packets transmitted, count"
scalar Container_A.rc_0_Rack_B_4[1].eth[0].mac 	txPk:sum(packetBytes) 	0
attr interpolationmode  none
attr source  txPk
attr title  "packets transmitted, sum(packetBytes)"
scalar Container_A.rc_0_Rack_B_4[1].eth[0].mac 	passedUpPk:count 	0
attr interpolationmode  none
attr source  packetSentToUpper
attr title  "packets passed to higher layer, count"
scalar Container_A.rc_0_Rack_B_4[1].eth[0].mac 	passedUpPk:sum(packetBytes) 	0
attr interpolationmode  none
attr source  packetSentToUpper
attr title  "packets passed to higher layer, sum(packetBytes)"
scalar Container_A.rc_0_Rack_B_4[1].eth[0].encap 	pauseSent:count 	0
attr title  "pause sent, count"
scalar Container_A.rc_0_Rack_B_4[1].eth[0].encap 	pauseSent:sum 	0
attr title  "pause sent, sum"
scalar Container_A.rc_0_Rack_B_4[1].eth[0].encap 	decapPk:count 	0
attr interpolationmode  none
attr source  decapPk
attr title  "packets decapsulated, count"
scalar Container_A.rc_0_Rack_B_4[1].eth[0].encap 	decapPk:sum(packetBytes) 	0
attr interpolationmode  none
attr source  decapPk
attr title  "packets decapsulated, sum(packetBytes)"
scalar Container_A.rc_0_Rack_B_4[1].eth[0].encap 	encapPk:count 	0
attr interpolationmode  none
attr source  encapPk
attr title  "packets encapsulated, count"
scalar Container_A.rc_0_Rack_B_4[1].eth[0].encap 	encapPk:sum(packetBytes) 	0
attr interpolationmode  none
attr source  encapPk
attr title  "packets encapsulated, sum(packetBytes)"
scalar Container_A.rc_0_Rack_B_4[2].networkLayer.arp 	failedARPResolution:count 	0
attr title  "ARP failed resolutions, count"
scalar Container_A.rc_0_Rack_B_4[2].networkLayer.arp 	completedARPResolution:count 	0
attr title  "ARP completed resolutions, count"
scalar Container_A.rc_0_Rack_B_4[2].networkLayer.arp 	initiatedARPResolution:count 	0
attr title  "ARP initiated resolutions, count"
scalar Container_A.rc_0_Rack_B_4[2].networkLayer.arp 	sentReply:count 	0
attr title  "ARP replies sent, count"
scalar Container_A.rc_0_Rack_B_4[2].networkLayer.arp 	sentReq:count 	0
attr title  "ARP request sent, count"
scalar Container_A.rc_0_Rack_B_4[2].lo0.lo 	droppedPkBitError:count 	0
attr interpolationmode  none
attr source  dropPkBitError
attr title  "packets dropped/bit error, count"
scalar Container_A.rc_0_Rack_B_4[2].lo0.lo 	droppedPkBitError:sum(packetBytes) 	0
attr interpolationmode  none
attr source  dropPkBitError
attr title  "packets dropped/bit error, sum(packetBytes)"
scalar Container_A.rc_0_Rack_B_4[2].lo0.lo 	rcvdPkFromHL:count 	0
attr interpolationmode  none
attr source  packetReceivedFromUpper
attr title  "packets received from higher layer, count"
scalar Container_A.rc_0_Rack_B_4[2].lo0.lo 	rcvdPkFromHL:sum(packetBytes) 	0
attr interpolationmode  none
attr source  packetReceivedFromUpper
attr title  "packets received from higher layer, sum(packetBytes)"
scalar Container_A.rc_0_Rack_B_4[2].lo0.lo 	passedUpPk:count 	0
attr interpolationmode  none
attr source  packetSentToUpper
attr title  "packets passed to higher layer, count"
scalar Container_A.rc_0_Rack_B_4[2].lo0.lo 	passedUpPk:sum(packetBytes) 	0
attr interpolationmode  none
attr source  packetSentToUpper
attr title  "packets passed to higher layer, sum(packetBytes)"
scalar Container_A.rc_0_Rack_B_4[2].eth[0].mac 	"simulated time" 	3.000016
scalar Container_A.rc_0_Rack_B_4[2].eth[0].mac 	full-duplex 	1
scalar Container_A.rc_0_Rack_B_4[2].eth[0].mac 	"frames/sec sent" 	0
scalar Container_A.rc_0_Rack_B_4[2].eth[0].mac 	"frames/sec rcvd" 	0
scalar Container_A.rc_0_Rack_B_4[2].eth[0].mac 	"bits/sec sent" 	0
scalar Container_A.rc_0_Rack_B_4[2].eth[0].mac 	"bits/sec rcvd" 	0
scalar Container_A.rc_0_Rack_B_4[2].eth[0].mac 	"rx channel idle (%)" 	100
scalar Container_A.rc_0_Rack_B_4[2].eth[0].mac 	"rx channel utilization (%)" 	0
scalar Container_A.rc_0_Rack_B_4[2].eth[0].mac 	droppedPkNotForUs:count 	0
attr interpolationmode  none
attr source  dropPkNotForUs
attr title  "packets dropped/not for us, count"
scalar Container_A.rc_0_Rack_B_4[2].eth[0].mac 	droppedPkNotForUs:sum(packetBytes) 	0
attr interpolationmode  none
attr source  dropPkNotForUs
attr title  "packets dropped/not for us, sum(packetBytes)"
scalar Container_A.rc_0_Rack_B_4[2].eth[0].mac 	droppedPkIfaceDown:count 	0
attr interpolationmode  none
attr source  dropPkIfaceDown
attr title  "packets dropped/interface down, count"
scalar Container_A.rc_0_Rack_B_4[2].eth[0].mac 	droppedPkIfaceDown:sum(packetBytes) 	0
attr interpolationmode  none
attr source  dropPkIfaceDown
attr title  "packets dropped/interface down, sum(packetBytes)"
scalar Container_A.rc_0_Rack_B_4[2].eth[0].mac 	droppedPkBitError:count 	0
attr interpolationmode  none
attr source  dropPkBitError
attr title  "packets dropped/bit error, count"
scalar Container_A.rc_0_Rack_B_4[2].eth[0].mac 	droppedPkBitError:sum(packetBytes) 	0
attr interpolationmode  none
attr source  dropPkBitError
attr title  "packets dropped/bit error, sum(packetBytes)"
scalar Container_A.rc_0_Rack_B_4[2].eth[0].mac 	rxPkFromHL:count 	0
attr interpolationmode  none
attr source  rxPkFromHL
attr title  "packet bytes from higher layer, count"
scalar Container_A.rc_0_Rack_B_4[2].eth[0].mac 	rxPkFromHL:sum(packetBytes) 	0
attr interpolationmode  none
attr source  rxPkFromHL
attr title  "packet bytes from higher layer, sum(packetBytes)"
scalar Container_A.rc_0_Rack_B_4[2].eth[0].mac 	rxPausePkUnits:count 	0
attr interpolationmode  none
attr title  "pause units received, count"
scalar Container_A.rc_0_Rack_B_4[2].eth[0].mac 	rxPausePkUnits:sum 	0
attr interpolationmode  none
attr title  "pause units received, sum"
scalar Container_A.rc_0_Rack_B_4[2].eth[0].mac 	txPausePkUnits:count 	0
attr interpolationmode  none
attr title  "pause units sent, count"
scalar Container_A.rc_0_Rack_B_4[2].eth[0].mac 	txPausePkUnits:sum 	0
attr interpolationmode  none
attr title  "pause units sent, sum"
scalar Container_A.rc_0_Rack_B_4[2].eth[0].mac 	rxPkOk:count 	0
attr interpolationmode  none
attr source  rxPkOk
attr title  "packets received OK, count"
scalar Container_A.rc_0_Rack_B_4[2].eth[0].mac 	rxPkOk:sum(packetBytes) 	0
attr interpolationmode  none
attr source  rxPkOk
attr title  "packets received OK, sum(packetBytes)"
scalar Container_A.rc_0_Rack_B_4[2].eth[0].mac 	txPk:count 	0
attr interpolationmode  none
attr source  txPk
attr title  "packets transmitted, count"
scalar Container_A.rc_0_Rack_B_4[2].eth[0].mac 	txPk:sum(packetBytes) 	0
attr interpolationmode  none
attr source  txPk
attr title  "packets transmitted, sum(packetBytes)"
scalar Container_A.rc_0_Rack_B_4[2].eth[0].mac 	passedUpPk:count 	0
attr interpolationmode  none
attr source  packetSentToUpper
attr title  "packets passed to higher layer, count"
scalar Container_A.rc_0_Rack_B_4[2].eth[0].mac 	passedUpPk:sum(packetBytes) 	0
attr interpolationmode  none
attr source  packetSentToUpper
attr title  "packets passed to higher layer, sum(packetBytes)"
scalar Container_A.rc_0_Rack_B_4[2].eth[0].encap 	pauseSent:count 	0
attr title  "pause sent, count"
scalar Container_A.rc_0_Rack_B_4[2].eth[0].encap 	pauseSent:sum 	0
attr title  "pause sent, sum"
scalar Container_A.rc_0_Rack_B_4[2].eth[0].encap 	decapPk:count 	0
attr interpolationmode  none
attr source  decapPk
attr title  "packets decapsulated, count"
scalar Container_A.rc_0_Rack_B_4[2].eth[0].encap 	decapPk:sum(packetBytes) 	0
attr interpolationmode  none
attr source  decapPk
attr title  "packets decapsulated, sum(packetBytes)"
scalar Container_A.rc_0_Rack_B_4[2].eth[0].encap 	encapPk:count 	0
attr interpolationmode  none
attr source  encapPk
attr title  "packets encapsulated, count"
scalar Container_A.rc_0_Rack_B_4[2].eth[0].encap 	encapPk:sum(packetBytes) 	0
attr interpolationmode  none
attr source  encapPk
attr title  "packets encapsulated, sum(packetBytes)"
