version 2
run General-0-20170326-00:17:17-6147
attr configname General
attr datetime 20170326-00:17:17
attr experiment General
attr inifile omnetpp.ini
attr iterationvars ""
attr iterationvars2 $repetition=0
attr measurement ""
attr network Container_A_FCFS_big
attr processid 6147
attr repetition 0
attr replication #0
attr resultdir results
attr runnumber 0
attr seedset 0

